New "Load.IP_IP1044012_15103_M1" bus1="3807955038467923.1.4" phases=1 conn=Wye model=1 kv=0.219 kw = 0.2932467 pf=0.92 status=variable vmaxpu=1.5 vminpu=0.93 daily="IP-Tipo1_DU" 
New "Load.IP_IP1044012_15103_M2" bus1="3807955038467923.1.4" phases=1 conn=Wye model=2 kv=0.219 kw = 0.2932467 pf=0.92 status=variable vmaxpu=1.5 vminpu=0.93 daily="IP-Tipo1_DU"
 
New "Load.IP_IP1044014_15104_M1" bus1="3807942338467585.1.4" phases=1 conn=Wye model=1 kv=0.219 kw = 0.2932467 pf=0.92 status=variable vmaxpu=1.5 vminpu=0.93 daily="IP-Tipo1_DU" 
New "Load.IP_IP1044014_15104_M2" bus1="3807942338467585.1.4" phases=1 conn=Wye model=2 kv=0.219 kw = 0.2932467 pf=0.92 status=variable vmaxpu=1.5 vminpu=0.93 daily="IP-Tipo1_DU"
 
New "Load.IP_IP1044016_15105_M1" bus1="3807823838467199.1.4" phases=1 conn=Wye model=1 kv=0.219 kw = 0.2932467 pf=0.92 status=variable vmaxpu=1.5 vminpu=0.93 daily="IP-Tipo1_DU" 
New "Load.IP_IP1044016_15105_M2" bus1="3807823838467199.1.4" phases=1 conn=Wye model=2 kv=0.219 kw = 0.2932467 pf=0.92 status=variable vmaxpu=1.5 vminpu=0.93 daily="IP-Tipo1_DU"
 
New "Load.IP_IP1044019_15106_M1" bus1="3807922938466639.1.4" phases=1 conn=Wye model=1 kv=0.219 kw = 0.2932467 pf=0.92 status=variable vmaxpu=1.5 vminpu=0.93 daily="IP-Tipo1_DU" 
New "Load.IP_IP1044019_15106_M2" bus1="3807922938466639.1.4" phases=1 conn=Wye model=2 kv=0.219 kw = 0.2932467 pf=0.92 status=variable vmaxpu=1.5 vminpu=0.93 daily="IP-Tipo1_DU"
 
New "Load.IP_IP1044024_15107_M1" bus1="3807934938466318.1.4" phases=1 conn=Wye model=1 kv=0.219 kw = 0.2932467 pf=0.92 status=variable vmaxpu=1.5 vminpu=0.93 daily="IP-Tipo1_DU" 
New "Load.IP_IP1044024_15107_M2" bus1="3807934938466318.1.4" phases=1 conn=Wye model=2 kv=0.219 kw = 0.2932467 pf=0.92 status=variable vmaxpu=1.5 vminpu=0.93 daily="IP-Tipo1_DU"
 
New "Load.IP_IP1044028_15108_M1" bus1="3807960538466028.1.4" phases=1 conn=Wye model=1 kv=0.219 kw = 0.2932467 pf=0.92 status=variable vmaxpu=1.5 vminpu=0.93 daily="IP-Tipo1_DU" 
New "Load.IP_IP1044028_15108_M2" bus1="3807960538466028.1.4" phases=1 conn=Wye model=2 kv=0.219 kw = 0.2932467 pf=0.92 status=variable vmaxpu=1.5 vminpu=0.93 daily="IP-Tipo1_DU"
 
New "Load.IP_IP1044035_15109_M1" bus1="3807988938465423.1.4" phases=1 conn=Wye model=1 kv=0.219 kw = 0.2932467 pf=0.92 status=variable vmaxpu=1.5 vminpu=0.93 daily="IP-Tipo1_DU" 
New "Load.IP_IP1044035_15109_M2" bus1="3807988938465423.1.4" phases=1 conn=Wye model=2 kv=0.219 kw = 0.2932467 pf=0.92 status=variable vmaxpu=1.5 vminpu=0.93 daily="IP-Tipo1_DU"
 
New "Load.IP_IP1044036_15110_M1" bus1="3807972638465708.1.4" phases=1 conn=Wye model=1 kv=0.219 kw = 0.2932467 pf=0.92 status=variable vmaxpu=1.5 vminpu=0.93 daily="IP-Tipo1_DU" 
New "Load.IP_IP1044036_15110_M2" bus1="3807972638465708.1.4" phases=1 conn=Wye model=2 kv=0.219 kw = 0.2932467 pf=0.92 status=variable vmaxpu=1.5 vminpu=0.93 daily="IP-Tipo1_DU"
 
New "Load.IP_IP1044095_15124_M1" bus1="3808351738463535.1.4" phases=1 conn=Wye model=1 kv=0.219 kw = 0.2932467 pf=0.92 status=variable vmaxpu=1.5 vminpu=0.93 daily="IP-Tipo1_DU" 
New "Load.IP_IP1044095_15124_M2" bus1="3808351738463535.1.4" phases=1 conn=Wye model=2 kv=0.219 kw = 0.2932467 pf=0.92 status=variable vmaxpu=1.5 vminpu=0.93 daily="IP-Tipo1_DU"
 
New "Load.IP_IP1044112_15125_M1" bus1="3807937338462556.1.4" phases=1 conn=Wye model=1 kv=0.219 kw = 0.2932467 pf=0.92 status=variable vmaxpu=1.5 vminpu=0.93 daily="IP-Tipo1_DU" 
New "Load.IP_IP1044112_15125_M2" bus1="3807937338462556.1.4" phases=1 conn=Wye model=2 kv=0.219 kw = 0.2932467 pf=0.92 status=variable vmaxpu=1.5 vminpu=0.93 daily="IP-Tipo1_DU"
 
New "Load.IP_IP1044113_15126_M1" bus1="3807854138461907.2.4" phases=1 conn=Wye model=1 kv=0.219 kw = 0.2932467 pf=0.92 status=variable vmaxpu=1.5 vminpu=0.93 daily="IP-Tipo1_DU" 
New "Load.IP_IP1044113_15126_M2" bus1="3807854138461907.2.4" phases=1 conn=Wye model=2 kv=0.219 kw = 0.2932467 pf=0.92 status=variable vmaxpu=1.5 vminpu=0.93 daily="IP-Tipo1_DU"
 
New "Load.IP_IP1044126_15127_M1" bus1="3807892038460457.1.4" phases=1 conn=Wye model=1 kv=0.219 kw = 0.2932467 pf=0.92 status=variable vmaxpu=1.5 vminpu=0.93 daily="IP-Tipo1_DU" 
New "Load.IP_IP1044126_15127_M2" bus1="3807892038460457.1.4" phases=1 conn=Wye model=2 kv=0.219 kw = 0.2932467 pf=0.92 status=variable vmaxpu=1.5 vminpu=0.93 daily="IP-Tipo1_DU"
 
New "Load.IP_IP1044136_15128_M1" bus1="3806488238455631.1.4" phases=1 conn=Wye model=1 kv=0.219 kw = 0.2932467 pf=0.92 status=variable vmaxpu=1.5 vminpu=0.93 daily="IP-Tipo1_DU" 
New "Load.IP_IP1044136_15128_M2" bus1="3806488238455631.1.4" phases=1 conn=Wye model=2 kv=0.219 kw = 0.2932467 pf=0.92 status=variable vmaxpu=1.5 vminpu=0.93 daily="IP-Tipo1_DU"
 
New "Load.IP_IP1044137_15129_M1" bus1="3806580438454998.1.4" phases=1 conn=Wye model=1 kv=0.219 kw = 0.2932467 pf=0.92 status=variable vmaxpu=1.5 vminpu=0.93 daily="IP-Tipo1_DU" 
New "Load.IP_IP1044137_15129_M2" bus1="3806580438454998.1.4" phases=1 conn=Wye model=2 kv=0.219 kw = 0.2932467 pf=0.92 status=variable vmaxpu=1.5 vminpu=0.93 daily="IP-Tipo1_DU"
 
New "Load.IP_IP1044144_15130_M1" bus1="3806174238453800.2.4" phases=1 conn=Wye model=1 kv=0.219 kw = 0.2932467 pf=0.92 status=variable vmaxpu=1.5 vminpu=0.93 daily="IP-Tipo1_DU" 
New "Load.IP_IP1044144_15130_M2" bus1="3806174238453800.2.4" phases=1 conn=Wye model=2 kv=0.219 kw = 0.2932467 pf=0.92 status=variable vmaxpu=1.5 vminpu=0.93 daily="IP-Tipo1_DU"
 
New "Load.IP_IP1044148_15131_M1" bus1="3806091938453324.1.4" phases=1 conn=Wye model=1 kv=0.219 kw = 0.2932467 pf=0.92 status=variable vmaxpu=1.5 vminpu=0.93 daily="IP-Tipo1_DU" 
New "Load.IP_IP1044148_15131_M2" bus1="3806091938453324.1.4" phases=1 conn=Wye model=2 kv=0.219 kw = 0.2932467 pf=0.92 status=variable vmaxpu=1.5 vminpu=0.93 daily="IP-Tipo1_DU"
 
New "Load.IP_IP1044151_15132_M1" bus1="3806031238452995.1.4" phases=1 conn=Wye model=1 kv=0.219 kw = 0.2932467 pf=0.92 status=variable vmaxpu=1.5 vminpu=0.93 daily="IP-Tipo1_DU" 
New "Load.IP_IP1044151_15132_M2" bus1="3806031238452995.1.4" phases=1 conn=Wye model=2 kv=0.219 kw = 0.2932467 pf=0.92 status=variable vmaxpu=1.5 vminpu=0.93 daily="IP-Tipo1_DU"
 
New "Load.IP_IP1044157_15133_M1" bus1="3805968438452587.1.4" phases=1 conn=Wye model=1 kv=0.219 kw = 0.2932467 pf=0.92 status=variable vmaxpu=1.5 vminpu=0.93 daily="IP-Tipo1_DU" 
New "Load.IP_IP1044157_15133_M2" bus1="3805968438452587.1.4" phases=1 conn=Wye model=2 kv=0.219 kw = 0.2932467 pf=0.92 status=variable vmaxpu=1.5 vminpu=0.93 daily="IP-Tipo1_DU"
 
New "Load.IP_IP1044162_15134_M1" bus1="3805905438452196.1.4" phases=1 conn=Wye model=1 kv=0.219 kw = 0.2932467 pf=0.92 status=variable vmaxpu=1.5 vminpu=0.93 daily="IP-Tipo1_DU" 
New "Load.IP_IP1044162_15134_M2" bus1="3805905438452196.1.4" phases=1 conn=Wye model=2 kv=0.219 kw = 0.2932467 pf=0.92 status=variable vmaxpu=1.5 vminpu=0.93 daily="IP-Tipo1_DU"
 
New "Load.IP_IP1044169_15135_M1" bus1="3806572038455976.1.4" phases=1 conn=Wye model=1 kv=0.219 kw = 0.2932467 pf=0.92 status=variable vmaxpu=1.5 vminpu=0.93 daily="IP-Tipo1_DU" 
New "Load.IP_IP1044169_15135_M2" bus1="3806572038455976.1.4" phases=1 conn=Wye model=2 kv=0.219 kw = 0.2932467 pf=0.92 status=variable vmaxpu=1.5 vminpu=0.93 daily="IP-Tipo1_DU"
 
New "Load.IP_IP1044178_15136_M1" bus1="3806761738456861.2.4" phases=1 conn=Wye model=1 kv=0.219 kw = 0.2932467 pf=0.92 status=variable vmaxpu=1.5 vminpu=0.93 daily="IP-Tipo1_DU" 
New "Load.IP_IP1044178_15136_M2" bus1="3806761738456861.2.4" phases=1 conn=Wye model=2 kv=0.219 kw = 0.2932467 pf=0.92 status=variable vmaxpu=1.5 vminpu=0.93 daily="IP-Tipo1_DU"
 
New "Load.IP_IP1044182_15137_M1" bus1="3806923838457620.1.4" phases=1 conn=Wye model=1 kv=0.219 kw = 0.2932467 pf=0.92 status=variable vmaxpu=1.5 vminpu=0.93 daily="IP-Tipo1_DU" 
New "Load.IP_IP1044182_15137_M2" bus1="3806923838457620.1.4" phases=1 conn=Wye model=2 kv=0.219 kw = 0.2932467 pf=0.92 status=variable vmaxpu=1.5 vminpu=0.93 daily="IP-Tipo1_DU"
 
New "Load.IP_IP1044184_15138_M1" bus1="3807362738457880.1.4" phases=1 conn=Wye model=1 kv=0.219 kw = 0.2932467 pf=0.92 status=variable vmaxpu=1.5 vminpu=0.93 daily="IP-Tipo1_DU" 
New "Load.IP_IP1044184_15138_M2" bus1="3807362738457880.1.4" phases=1 conn=Wye model=2 kv=0.219 kw = 0.2932467 pf=0.92 status=variable vmaxpu=1.5 vminpu=0.93 daily="IP-Tipo1_DU"
 
New "Load.IP_IP1044186_15139_M1" bus1="3807075538458403.1.4" phases=1 conn=Wye model=1 kv=0.219 kw = 0.2932467 pf=0.92 status=variable vmaxpu=1.5 vminpu=0.93 daily="IP-Tipo1_DU" 
New "Load.IP_IP1044186_15139_M2" bus1="3807075538458403.1.4" phases=1 conn=Wye model=2 kv=0.219 kw = 0.2932467 pf=0.92 status=variable vmaxpu=1.5 vminpu=0.93 daily="IP-Tipo1_DU"
 
New "Load.IP_IP1044187_15140_M1" bus1="3807233438459065.1.4" phases=1 conn=Wye model=1 kv=0.219 kw = 0.2932467 pf=0.92 status=variable vmaxpu=1.5 vminpu=0.93 daily="IP-Tipo1_DU" 
New "Load.IP_IP1044187_15140_M2" bus1="3807233438459065.1.4" phases=1 conn=Wye model=2 kv=0.219 kw = 0.2932467 pf=0.92 status=variable vmaxpu=1.5 vminpu=0.93 daily="IP-Tipo1_DU"
 
New "Load.IP_IP1044196_15141_M1" bus1="3807288838459308.1.4" phases=1 conn=Wye model=1 kv=0.219 kw = 0.2932467 pf=0.92 status=variable vmaxpu=1.5 vminpu=0.93 daily="IP-Tipo1_DU" 
New "Load.IP_IP1044196_15141_M2" bus1="3807288838459308.1.4" phases=1 conn=Wye model=2 kv=0.219 kw = 0.2932467 pf=0.92 status=variable vmaxpu=1.5 vminpu=0.93 daily="IP-Tipo1_DU"
 
New "Load.IP_IP1044197_15142_M1" bus1="3807558038458997.2.4" phases=1 conn=Wye model=1 kv=0.219 kw = 0.2932467 pf=0.92 status=variable vmaxpu=1.5 vminpu=0.93 daily="IP-Tipo1_DU" 
New "Load.IP_IP1044197_15142_M2" bus1="3807558038458997.2.4" phases=1 conn=Wye model=2 kv=0.219 kw = 0.2932467 pf=0.92 status=variable vmaxpu=1.5 vminpu=0.93 daily="IP-Tipo1_DU"
 
New "Load.IP_IP1044199_15143_M1" bus1="3807694638459776.2.4" phases=1 conn=Wye model=1 kv=0.219 kw = 0.2932467 pf=0.92 status=variable vmaxpu=1.5 vminpu=0.93 daily="IP-Tipo1_DU" 
New "Load.IP_IP1044199_15143_M2" bus1="3807694638459776.2.4" phases=1 conn=Wye model=2 kv=0.219 kw = 0.2932467 pf=0.92 status=variable vmaxpu=1.5 vminpu=0.93 daily="IP-Tipo1_DU"
 
New "Load.IP_IP1044543_15200_M1" bus1="3807731338471235.2.4" phases=1 conn=Wye model=1 kv=0.219 kw = 0.2932467 pf=0.92 status=variable vmaxpu=1.5 vminpu=0.93 daily="IP-Tipo1_DU" 
New "Load.IP_IP1044543_15200_M2" bus1="3807731338471235.2.4" phases=1 conn=Wye model=2 kv=0.219 kw = 0.2932467 pf=0.92 status=variable vmaxpu=1.5 vminpu=0.93 daily="IP-Tipo1_DU"
 
New "Load.IP_IP1044544_15201_M1" bus1="3808401538471181.1.4" phases=1 conn=Wye model=1 kv=0.219 kw = 0.2932467 pf=0.92 status=variable vmaxpu=1.5 vminpu=0.93 daily="IP-Tipo1_DU" 
New "Load.IP_IP1044544_15201_M2" bus1="3808401538471181.1.4" phases=1 conn=Wye model=2 kv=0.219 kw = 0.2932467 pf=0.92 status=variable vmaxpu=1.5 vminpu=0.93 daily="IP-Tipo1_DU"
 
New "Load.IP_IP1044547_15202_M1" bus1="3808128038470421.1.4" phases=1 conn=Wye model=1 kv=0.219 kw = 0.2932467 pf=0.92 status=variable vmaxpu=1.5 vminpu=0.93 daily="IP-Tipo1_DU" 
New "Load.IP_IP1044547_15202_M2" bus1="3808128038470421.1.4" phases=1 conn=Wye model=2 kv=0.219 kw = 0.2932467 pf=0.92 status=variable vmaxpu=1.5 vminpu=0.93 daily="IP-Tipo1_DU"
 
New "Load.IP_IP1044552_15203_M1" bus1="3808101938469561.1.4" phases=1 conn=Wye model=1 kv=0.219 kw = 0.2932467 pf=0.92 status=variable vmaxpu=1.5 vminpu=0.93 daily="IP-Tipo1_DU" 
New "Load.IP_IP1044552_15203_M2" bus1="3808101938469561.1.4" phases=1 conn=Wye model=2 kv=0.219 kw = 0.2932467 pf=0.92 status=variable vmaxpu=1.5 vminpu=0.93 daily="IP-Tipo1_DU"
 
New "Load.IP_IP1044557_15204_M1" bus1="3808477738469508.1.4" phases=1 conn=Wye model=1 kv=0.219 kw = 0.2932467 pf=0.92 status=variable vmaxpu=1.5 vminpu=0.93 daily="IP-Tipo1_DU" 
New "Load.IP_IP1044557_15204_M2" bus1="3808477738469508.1.4" phases=1 conn=Wye model=2 kv=0.219 kw = 0.2932467 pf=0.92 status=variable vmaxpu=1.5 vminpu=0.93 daily="IP-Tipo1_DU"
 
New "Load.IP_IP1044560_15205_M1" bus1="3808741938468544.2.4" phases=1 conn=Wye model=1 kv=0.219 kw = 0.2932467 pf=0.92 status=variable vmaxpu=1.5 vminpu=0.93 daily="IP-Tipo1_DU" 
New "Load.IP_IP1044560_15205_M2" bus1="3808741938468544.2.4" phases=1 conn=Wye model=2 kv=0.219 kw = 0.2932467 pf=0.92 status=variable vmaxpu=1.5 vminpu=0.93 daily="IP-Tipo1_DU"
 
New "Load.IP_IP1044631_15222_M1" bus1="3791778638472605.1.4" phases=1 conn=Wye model=1 kv=0.219 kw = 0.2810830 pf=0.92 status=variable vmaxpu=1.5 vminpu=0.93 daily="IP-Tipo1_DU" 
New "Load.IP_IP1044631_15222_M2" bus1="3791778638472605.1.4" phases=1 conn=Wye model=2 kv=0.219 kw = 0.2810830 pf=0.92 status=variable vmaxpu=1.5 vminpu=0.93 daily="IP-Tipo1_DU"
 
New "Load.IP_IP1044690_15244_M1" bus1="3791630438470781.1.4" phases=1 conn=Wye model=1 kv=0.219 kw = 0.2810830 pf=0.92 status=variable vmaxpu=1.5 vminpu=0.93 daily="IP-Tipo1_DU" 
New "Load.IP_IP1044690_15244_M2" bus1="3791630438470781.1.4" phases=1 conn=Wye model=2 kv=0.219 kw = 0.2810830 pf=0.92 status=variable vmaxpu=1.5 vminpu=0.93 daily="IP-Tipo1_DU"
 
New "Load.IP_IP1044694_15245_M1" bus1="3792128838470191.1.4" phases=1 conn=Wye model=1 kv=0.219 kw = 0.2750004 pf=0.92 status=variable vmaxpu=1.5 vminpu=0.93 daily="IP-Tipo1_DU" 
New "Load.IP_IP1044694_15245_M2" bus1="3792128838470191.1.4" phases=1 conn=Wye model=2 kv=0.219 kw = 0.2750004 pf=0.92 status=variable vmaxpu=1.5 vminpu=0.93 daily="IP-Tipo1_DU"
 
New "Load.IP_IP1046384_15891_M1" bus1="3793895238472928.1.4" phases=1 conn=Wye model=1 kv=0.219 kw = 0.2810830 pf=0.92 status=variable vmaxpu=1.5 vminpu=0.93 daily="IP-Tipo1_DU" 
New "Load.IP_IP1046384_15891_M2" bus1="3793895238472928.1.4" phases=1 conn=Wye model=2 kv=0.219 kw = 0.2810830 pf=0.92 status=variable vmaxpu=1.5 vminpu=0.93 daily="IP-Tipo1_DU"
 
New "Load.IP_IP1046387_15893_M1" bus1="3793865538472556.1.4" phases=1 conn=Wye model=1 kv=0.219 kw = 0.2810830 pf=0.92 status=variable vmaxpu=1.5 vminpu=0.93 daily="IP-Tipo1_DU" 
New "Load.IP_IP1046387_15893_M2" bus1="3793865538472556.1.4" phases=1 conn=Wye model=2 kv=0.219 kw = 0.2810830 pf=0.92 status=variable vmaxpu=1.5 vminpu=0.93 daily="IP-Tipo1_DU"
 
New "Load.IP_IP1046390_15894_M1" bus1="3794214538472408.1.4" phases=1 conn=Wye model=1 kv=0.219 kw = 0.2932467 pf=0.92 status=variable vmaxpu=1.5 vminpu=0.93 daily="IP-Tipo1_DU" 
New "Load.IP_IP1046390_15894_M2" bus1="3794214538472408.1.4" phases=1 conn=Wye model=2 kv=0.219 kw = 0.2932467 pf=0.92 status=variable vmaxpu=1.5 vminpu=0.93 daily="IP-Tipo1_DU"
 
New "Load.IP_IP1046391_15895_M1" bus1="3795001738471996.1.4" phases=1 conn=Wye model=1 kv=0.219 kw = 0.2932467 pf=0.92 status=variable vmaxpu=1.5 vminpu=0.93 daily="IP-Tipo1_DU" 
New "Load.IP_IP1046391_15895_M2" bus1="3795001738471996.1.4" phases=1 conn=Wye model=2 kv=0.219 kw = 0.2932467 pf=0.92 status=variable vmaxpu=1.5 vminpu=0.93 daily="IP-Tipo1_DU"
 
New "Load.IP_IP1046393_15896_M1" bus1="297565110TR.1.4" phases=1 conn=Wye model=1 kv=0.219 kw = 0.2932467 pf=0.92 status=variable vmaxpu=1.5 vminpu=0.93 daily="IP-Tipo1_DU" 
New "Load.IP_IP1046393_15896_M2" bus1="297565110TR.1.4" phases=1 conn=Wye model=2 kv=0.219 kw = 0.2932467 pf=0.92 status=variable vmaxpu=1.5 vminpu=0.93 daily="IP-Tipo1_DU"
 
New "Load.IP_IP1046394_15897_M1" bus1="297565110TR.1.4" phases=1 conn=Wye model=1 kv=0.219 kw = 0.2932467 pf=0.92 status=variable vmaxpu=1.5 vminpu=0.93 daily="IP-Tipo1_DU" 
New "Load.IP_IP1046394_15897_M2" bus1="297565110TR.1.4" phases=1 conn=Wye model=2 kv=0.219 kw = 0.2932467 pf=0.92 status=variable vmaxpu=1.5 vminpu=0.93 daily="IP-Tipo1_DU"
 
New "Load.IP_IP1046398_15898_M1" bus1="3792854838472513.1.4" phases=1 conn=Wye model=1 kv=0.219 kw = 0.2810830 pf=0.92 status=variable vmaxpu=1.5 vminpu=0.93 daily="IP-Tipo1_DU" 
New "Load.IP_IP1046398_15898_M2" bus1="3792854838472513.1.4" phases=1 conn=Wye model=2 kv=0.219 kw = 0.2810830 pf=0.92 status=variable vmaxpu=1.5 vminpu=0.93 daily="IP-Tipo1_DU"
 
New "Load.IP_IP1046401_15899_M1" bus1="3792960838471738.1.4" phases=1 conn=Wye model=1 kv=0.219 kw = 0.2750004 pf=0.92 status=variable vmaxpu=1.5 vminpu=0.93 daily="IP-Tipo1_DU" 
New "Load.IP_IP1046401_15899_M2" bus1="3792960838471738.1.4" phases=1 conn=Wye model=2 kv=0.219 kw = 0.2750004 pf=0.92 status=variable vmaxpu=1.5 vminpu=0.93 daily="IP-Tipo1_DU"
 
New "Load.IP_IP1046402_15900_M1" bus1="3792421638471496.1.4" phases=1 conn=Wye model=1 kv=0.219 kw = 0.2750004 pf=0.92 status=variable vmaxpu=1.5 vminpu=0.93 daily="IP-Tipo1_DU" 
New "Load.IP_IP1046402_15900_M2" bus1="3792421638471496.1.4" phases=1 conn=Wye model=2 kv=0.219 kw = 0.2750004 pf=0.92 status=variable vmaxpu=1.5 vminpu=0.93 daily="IP-Tipo1_DU"
 
New "Load.IP_IP1046403_15901_M1" bus1="3792397238471091.1.4" phases=1 conn=Wye model=1 kv=0.219 kw = 0.2810830 pf=0.92 status=variable vmaxpu=1.5 vminpu=0.93 daily="IP-Tipo1_DU" 
New "Load.IP_IP1046403_15901_M2" bus1="3792397238471091.1.4" phases=1 conn=Wye model=2 kv=0.219 kw = 0.2810830 pf=0.92 status=variable vmaxpu=1.5 vminpu=0.93 daily="IP-Tipo1_DU"
 
New "Load.IP_IP1046406_15902_M1" bus1="3792360738470716.1.4" phases=1 conn=Wye model=1 kv=0.219 kw = 0.2810830 pf=0.92 status=variable vmaxpu=1.5 vminpu=0.93 daily="IP-Tipo1_DU" 
New "Load.IP_IP1046406_15902_M2" bus1="3792360738470716.1.4" phases=1 conn=Wye model=2 kv=0.219 kw = 0.2810830 pf=0.92 status=variable vmaxpu=1.5 vminpu=0.93 daily="IP-Tipo1_DU"
 
New "Load.IP_IP1046407_15903_M1" bus1="3791888038470482.1.4" phases=1 conn=Wye model=1 kv=0.219 kw = 0.2810830 pf=0.92 status=variable vmaxpu=1.5 vminpu=0.93 daily="IP-Tipo1_DU" 
New "Load.IP_IP1046407_15903_M2" bus1="3791888038470482.1.4" phases=1 conn=Wye model=2 kv=0.219 kw = 0.2810830 pf=0.92 status=variable vmaxpu=1.5 vminpu=0.93 daily="IP-Tipo1_DU"
 
New "Load.IP_IP1046415_15905_M1" bus1="3792072938471806.1.4" phases=1 conn=Wye model=1 kv=0.219 kw = 0.2932467 pf=0.92 status=variable vmaxpu=1.5 vminpu=0.93 daily="IP-Tipo1_DU" 
New "Load.IP_IP1046415_15905_M2" bus1="3792072938471806.1.4" phases=1 conn=Wye model=2 kv=0.219 kw = 0.2932467 pf=0.92 status=variable vmaxpu=1.5 vminpu=0.93 daily="IP-Tipo1_DU"
 
New "Load.IP_IP1049263_16979_M1" bus1="3806409238471820.1.4" phases=1 conn=Wye model=1 kv=0.219 kw = 0.2810830 pf=0.92 status=variable vmaxpu=1.5 vminpu=0.93 daily="IP-Tipo1_DU" 
New "Load.IP_IP1049263_16979_M2" bus1="3806409238471820.1.4" phases=1 conn=Wye model=2 kv=0.219 kw = 0.2810830 pf=0.92 status=variable vmaxpu=1.5 vminpu=0.93 daily="IP-Tipo1_DU"
 
New "Load.IP_IP1049265_16980_M1" bus1="3806744638471321.2.4" phases=1 conn=Wye model=1 kv=0.219 kw = 0.2810830 pf=0.92 status=variable vmaxpu=1.5 vminpu=0.93 daily="IP-Tipo1_DU" 
New "Load.IP_IP1049265_16980_M2" bus1="3806744638471321.2.4" phases=1 conn=Wye model=2 kv=0.219 kw = 0.2810830 pf=0.92 status=variable vmaxpu=1.5 vminpu=0.93 daily="IP-Tipo1_DU"
 
!New "Load.IP_IP1049272_16983_M1" bus1="3807767438470542.1.4" phases=1 conn=Wye model=1 kv=0.127 kw = 0.2932467 pf=0.92 status=variable vmaxpu=1.5 vminpu=0.93 daily="IP-Tipo1_DU" 
!New "Load.IP_IP1049272_16983_M2" bus1="3807767438470542.1.4" phases=1 conn=Wye model=2 kv=0.127 kw = 0.2932467 pf=0.92 status=variable vmaxpu=1.5 vminpu=0.93 daily="IP-Tipo1_DU"
 
New "Load.IP_IP1049273_16984_M1" bus1="3806730538470561.2.4" phases=1 conn=Wye model=1 kv=0.219 kw = 0.2932467 pf=0.92 status=variable vmaxpu=1.5 vminpu=0.93 daily="IP-Tipo1_DU" 
New "Load.IP_IP1049273_16984_M2" bus1="3806730538470561.2.4" phases=1 conn=Wye model=2 kv=0.219 kw = 0.2932467 pf=0.92 status=variable vmaxpu=1.5 vminpu=0.93 daily="IP-Tipo1_DU"
 
New "Load.IP_IP1049276_16985_M1" bus1="3806195138470582.2.4" phases=1 conn=Wye model=1 kv=0.219 kw = 0.2932467 pf=0.92 status=variable vmaxpu=1.5 vminpu=0.93 daily="IP-Tipo1_DU" 
New "Load.IP_IP1049276_16985_M2" bus1="3806195138470582.2.4" phases=1 conn=Wye model=2 kv=0.219 kw = 0.2932467 pf=0.92 status=variable vmaxpu=1.5 vminpu=0.93 daily="IP-Tipo1_DU"
 
New "Load.IP_IP1049277_16986_M1" bus1="3806075538471355.1.4" phases=1 conn=Wye model=1 kv=0.219 kw = 0.2932467 pf=0.92 status=variable vmaxpu=1.5 vminpu=0.93 daily="IP-Tipo1_DU" 
New "Load.IP_IP1049277_16986_M2" bus1="3806075538471355.1.4" phases=1 conn=Wye model=2 kv=0.219 kw = 0.2932467 pf=0.92 status=variable vmaxpu=1.5 vminpu=0.93 daily="IP-Tipo1_DU"
 
New "Load.IP_IP1049280_16987_M1" bus1="3806444238471341.2.4" phases=1 conn=Wye model=1 kv=0.219 kw = 0.2871642 pf=0.92 status=variable vmaxpu=1.5 vminpu=0.93 daily="IP-Tipo1_DU" 
New "Load.IP_IP1049280_16987_M2" bus1="3806444238471341.2.4" phases=1 conn=Wye model=2 kv=0.219 kw = 0.2871642 pf=0.92 status=variable vmaxpu=1.5 vminpu=0.93 daily="IP-Tipo1_DU"
 
New "Load.IP_IP1049281_16988_M1" bus1="3806330938470374.2.4" phases=1 conn=Wye model=1 kv=0.219 kw = 0.2750004 pf=0.92 status=variable vmaxpu=1.5 vminpu=0.93 daily="IP-Tipo1_DU" 
New "Load.IP_IP1049281_16988_M2" bus1="3806330938470374.2.4" phases=1 conn=Wye model=2 kv=0.219 kw = 0.2750004 pf=0.92 status=variable vmaxpu=1.5 vminpu=0.93 daily="IP-Tipo1_DU"
 
New "Load.IP_IP1049283_16989_M1" bus1="3807966138468805.1.4" phases=1 conn=Wye model=1 kv=0.219 kw = 0.2810830 pf=0.92 status=variable vmaxpu=1.5 vminpu=0.93 daily="IP-Tipo1_DU" 
New "Load.IP_IP1049283_16989_M2" bus1="3807966138468805.1.4" phases=1 conn=Wye model=2 kv=0.219 kw = 0.2810830 pf=0.92 status=variable vmaxpu=1.5 vminpu=0.93 daily="IP-Tipo1_DU"
 
New "Load.IP_IP1049284_16990_M1" bus1="3807497238468330.2.4" phases=1 conn=Wye model=1 kv=0.219 kw = 0.2810830 pf=0.92 status=variable vmaxpu=1.5 vminpu=0.93 daily="IP-Tipo1_DU" 
New "Load.IP_IP1049284_16990_M2" bus1="3807497238468330.2.4" phases=1 conn=Wye model=2 kv=0.219 kw = 0.2810830 pf=0.92 status=variable vmaxpu=1.5 vminpu=0.93 daily="IP-Tipo1_DU"
 
New "Load.IP_IP1049286_16991_M1" bus1="3807147138468250.2.4" phases=1 conn=Wye model=1 kv=0.219 kw = 0.2810830 pf=0.92 status=variable vmaxpu=1.5 vminpu=0.93 daily="IP-Tipo1_DU" 
New "Load.IP_IP1049286_16991_M2" bus1="3807147138468250.2.4" phases=1 conn=Wye model=2 kv=0.219 kw = 0.2810830 pf=0.92 status=variable vmaxpu=1.5 vminpu=0.93 daily="IP-Tipo1_DU"
 
New "Load.IP_IP1049287_16992_M1" bus1="3806763038468162.2.4" phases=1 conn=Wye model=1 kv=0.219 kw = 0.2810830 pf=0.92 status=variable vmaxpu=1.5 vminpu=0.93 daily="IP-Tipo1_DU" 
New "Load.IP_IP1049287_16992_M2" bus1="3806763038468162.2.4" phases=1 conn=Wye model=2 kv=0.219 kw = 0.2810830 pf=0.92 status=variable vmaxpu=1.5 vminpu=0.93 daily="IP-Tipo1_DU"
 
New "Load.IP_IP1049294_16993_M1" bus1="3806398838468065.1.4" phases=1 conn=Wye model=1 kv=0.219 kw = 0.2810830 pf=0.92 status=variable vmaxpu=1.5 vminpu=0.93 daily="IP-Tipo1_DU" 
New "Load.IP_IP1049294_16993_M2" bus1="3806398838468065.1.4" phases=1 conn=Wye model=2 kv=0.219 kw = 0.2810830 pf=0.92 status=variable vmaxpu=1.5 vminpu=0.93 daily="IP-Tipo1_DU"
 
New "Load.IP_IP1049295_16994_M1" bus1="3806085438467986.1.4" phases=1 conn=Wye model=1 kv=0.219 kw = 0.2810830 pf=0.92 status=variable vmaxpu=1.5 vminpu=0.93 daily="IP-Tipo1_DU" 
New "Load.IP_IP1049295_16994_M2" bus1="3806085438467986.1.4" phases=1 conn=Wye model=2 kv=0.219 kw = 0.2810830 pf=0.92 status=variable vmaxpu=1.5 vminpu=0.93 daily="IP-Tipo1_DU"
 
New "Load.IP_IP1049296_16995_M1" bus1="3807963538468257.1.4" phases=1 conn=Wye model=1 kv=0.219 kw = 0.2750004 pf=0.92 status=variable vmaxpu=1.5 vminpu=0.93 daily="IP-Tipo1_DU" 
New "Load.IP_IP1049296_16995_M2" bus1="3807963538468257.1.4" phases=1 conn=Wye model=2 kv=0.219 kw = 0.2750004 pf=0.92 status=variable vmaxpu=1.5 vminpu=0.93 daily="IP-Tipo1_DU"
 
New "Load.IP_IP1049297_16996_M1" bus1="3807867638468325.1.4" phases=1 conn=Wye model=1 kv=0.219 kw = 0.2750004 pf=0.92 status=variable vmaxpu=1.5 vminpu=0.93 daily="IP-Tipo1_DU" 
New "Load.IP_IP1049297_16996_M2" bus1="3807867638468325.1.4" phases=1 conn=Wye model=2 kv=0.219 kw = 0.2750004 pf=0.92 status=variable vmaxpu=1.5 vminpu=0.93 daily="IP-Tipo1_DU"
 
New "Load.IP_IP1049299_16997_M1" bus1="3808238438461774.1.4" phases=1 conn=Wye model=1 kv=0.219 kw = 0.2871642 pf=0.92 status=variable vmaxpu=1.5 vminpu=0.93 daily="IP-Tipo1_DU" 
New "Load.IP_IP1049299_16997_M2" bus1="3808238438461774.1.4" phases=1 conn=Wye model=2 kv=0.219 kw = 0.2871642 pf=0.92 status=variable vmaxpu=1.5 vminpu=0.93 daily="IP-Tipo1_DU"
 
New "Load.IP_IP1049300_16998_M1" bus1="3808780538461928.1.4" phases=1 conn=Wye model=1 kv=0.219 kw = 0.2871642 pf=0.92 status=variable vmaxpu=1.5 vminpu=0.93 daily="IP-Tipo1_DU" 
New "Load.IP_IP1049300_16998_M2" bus1="3808780538461928.1.4" phases=1 conn=Wye model=2 kv=0.219 kw = 0.2871642 pf=0.92 status=variable vmaxpu=1.5 vminpu=0.93 daily="IP-Tipo1_DU"
 
New "Load.IP_IP1049301_16999_M1" bus1="3808968638461988.1.4" phases=1 conn=Wye model=1 kv=0.219 kw = 0.2871642 pf=0.92 status=variable vmaxpu=1.5 vminpu=0.93 daily="IP-Tipo1_DU" 
New "Load.IP_IP1049301_16999_M2" bus1="3808968638461988.1.4" phases=1 conn=Wye model=2 kv=0.219 kw = 0.2871642 pf=0.92 status=variable vmaxpu=1.5 vminpu=0.93 daily="IP-Tipo1_DU"
 
New "Load.IP_IP1049307_17000_M1" bus1="3807872538462209.1.4" phases=1 conn=Wye model=1 kv=0.219 kw = 0.2810830 pf=0.92 status=variable vmaxpu=1.5 vminpu=0.93 daily="IP-Tipo1_DU" 
New "Load.IP_IP1049307_17000_M2" bus1="3807872538462209.1.4" phases=1 conn=Wye model=2 kv=0.219 kw = 0.2810830 pf=0.92 status=variable vmaxpu=1.5 vminpu=0.93 daily="IP-Tipo1_DU"
 
New "Load.IP_IP1049311_17002_M1" bus1="3806355238462715.1.4" phases=1 conn=Wye model=1 kv=0.219 kw = 0.2810830 pf=0.92 status=variable vmaxpu=1.5 vminpu=0.93 daily="IP-Tipo1_DU" 
New "Load.IP_IP1049311_17002_M2" bus1="3806355238462715.1.4" phases=1 conn=Wye model=2 kv=0.219 kw = 0.2810830 pf=0.92 status=variable vmaxpu=1.5 vminpu=0.93 daily="IP-Tipo1_DU"
 
New "Load.IP_IP1049314_17003_M1" bus1="3805243938462787.1.4" phases=1 conn=Wye model=1 kv=0.219 kw = 0.2810830 pf=0.92 status=variable vmaxpu=1.5 vminpu=0.93 daily="IP-Tipo1_DU" 
New "Load.IP_IP1049314_17003_M2" bus1="3805243938462787.1.4" phases=1 conn=Wye model=2 kv=0.219 kw = 0.2810830 pf=0.92 status=variable vmaxpu=1.5 vminpu=0.93 daily="IP-Tipo1_DU"
 
New "Load.IP_IP1049326_17005_M1" bus1="3805583938462770.1.4" phases=1 conn=Wye model=1 kv=0.219 kw = 0.2810830 pf=0.92 status=variable vmaxpu=1.5 vminpu=0.93 daily="IP-Tipo1_DU" 
New "Load.IP_IP1049326_17005_M2" bus1="3805583938462770.1.4" phases=1 conn=Wye model=2 kv=0.219 kw = 0.2810830 pf=0.92 status=variable vmaxpu=1.5 vminpu=0.93 daily="IP-Tipo1_DU"
 
New "Load.IP_IP1049342_17007_M1" bus1="3807972838462879.1.4" phases=1 conn=Wye model=1 kv=0.219 kw = 0.2810830 pf=0.92 status=variable vmaxpu=1.5 vminpu=0.93 daily="IP-Tipo1_DU" 
New "Load.IP_IP1049342_17007_M2" bus1="3807972838462879.1.4" phases=1 conn=Wye model=2 kv=0.219 kw = 0.2810830 pf=0.92 status=variable vmaxpu=1.5 vminpu=0.93 daily="IP-Tipo1_DU"
 
New "Load.IP_IP1049343_17008_M1" bus1="3807525538462601.1.4" phases=1 conn=Wye model=1 kv=0.219 kw = 0.2810830 pf=0.92 status=variable vmaxpu=1.5 vminpu=0.93 daily="IP-Tipo1_DU" 
New "Load.IP_IP1049343_17008_M2" bus1="3807525538462601.1.4" phases=1 conn=Wye model=2 kv=0.219 kw = 0.2810830 pf=0.92 status=variable vmaxpu=1.5 vminpu=0.93 daily="IP-Tipo1_DU"
 
New "Load.IP_IP1049344_17009_M1" bus1="3807701538461942.2.4" phases=1 conn=Wye model=1 kv=0.219 kw = 0.2810830 pf=0.92 status=variable vmaxpu=1.5 vminpu=0.93 daily="IP-Tipo1_DU" 
New "Load.IP_IP1049344_17009_M2" bus1="3807701538461942.2.4" phases=1 conn=Wye model=2 kv=0.219 kw = 0.2810830 pf=0.92 status=variable vmaxpu=1.5 vminpu=0.93 daily="IP-Tipo1_DU"
 
New "Load.IP_IP1049347_17010_M1" bus1="3806441338461314.2.4" phases=1 conn=Wye model=1 kv=0.219 kw = 0.2810830 pf=0.92 status=variable vmaxpu=1.5 vminpu=0.93 daily="IP-Tipo1_DU" 
New "Load.IP_IP1049347_17010_M2" bus1="3806441338461314.2.4" phases=1 conn=Wye model=2 kv=0.219 kw = 0.2810830 pf=0.92 status=variable vmaxpu=1.5 vminpu=0.93 daily="IP-Tipo1_DU"
 
New "Load.IP_IP1049348_17011_M1" bus1="3806086338461332.2.4" phases=1 conn=Wye model=1 kv=0.219 kw = 0.2810830 pf=0.92 status=variable vmaxpu=1.5 vminpu=0.93 daily="IP-Tipo1_DU" 
New "Load.IP_IP1049348_17011_M2" bus1="3806086338461332.2.4" phases=1 conn=Wye model=2 kv=0.219 kw = 0.2810830 pf=0.92 status=variable vmaxpu=1.5 vminpu=0.93 daily="IP-Tipo1_DU"
 
New "Load.IP_IP1049361_17017_M1" bus1="3806228938461111.2.4" phases=1 conn=Wye model=1 kv=0.219 kw = 0.2750004 pf=0.92 status=variable vmaxpu=1.5 vminpu=0.93 daily="IP-Tipo1_DU" 
New "Load.IP_IP1049361_17017_M2" bus1="3806228938461111.2.4" phases=1 conn=Wye model=2 kv=0.219 kw = 0.2750004 pf=0.92 status=variable vmaxpu=1.5 vminpu=0.93 daily="IP-Tipo1_DU"
 
New "Load.IP_IP1049363_17018_M1" bus1="3806804138461302.2.4" phases=1 conn=Wye model=1 kv=0.219 kw = 0.2750004 pf=0.92 status=variable vmaxpu=1.5 vminpu=0.93 daily="IP-Tipo1_DU" 
New "Load.IP_IP1049363_17018_M2" bus1="3806804138461302.2.4" phases=1 conn=Wye model=2 kv=0.219 kw = 0.2750004 pf=0.92 status=variable vmaxpu=1.5 vminpu=0.93 daily="IP-Tipo1_DU"
 
New "Load.IP_IP1049365_17019_M1" bus1="3807725438461493.1.4" phases=1 conn=Wye model=1 kv=0.219 kw = 0.2750004 pf=0.92 status=variable vmaxpu=1.5 vminpu=0.93 daily="IP-Tipo1_DU" 
New "Load.IP_IP1049365_17019_M2" bus1="3807725438461493.1.4" phases=1 conn=Wye model=2 kv=0.219 kw = 0.2750004 pf=0.92 status=variable vmaxpu=1.5 vminpu=0.93 daily="IP-Tipo1_DU"
 
New "Load.IP_IP1049367_17020_M1" bus1="3808171938458876.2.4" phases=1 conn=Wye model=1 kv=0.219 kw = 0.2750004 pf=0.92 status=variable vmaxpu=1.5 vminpu=0.93 daily="IP-Tipo1_DU" 
New "Load.IP_IP1049367_17020_M2" bus1="3808171938458876.2.4" phases=1 conn=Wye model=2 kv=0.219 kw = 0.2750004 pf=0.92 status=variable vmaxpu=1.5 vminpu=0.93 daily="IP-Tipo1_DU"
 
New "Load.IP_IP1049369_17021_M1" bus1="3808577238459204.1.4" phases=1 conn=Wye model=1 kv=0.219 kw = 0.2750004 pf=0.92 status=variable vmaxpu=1.5 vminpu=0.93 daily="IP-Tipo1_DU" 