New "Load.BT_UC1014438_3567_M1" bus1="3821445438458812.1.4" phases=1 conn=Wye model=1 kv=0.219 kw = 0.1322076 pf=0.92 status=variable vmaxpu=1.5 vminpu=0.92 daily="RES-Tipo04_DU" 
New "Load.BT_UC1014438_3567_M2" bus1="3821445438458812.1.4" phases=1 conn=Wye model=2 kv=0.219 kw = 0.1322076 pf=0.92 status=variable vmaxpu=1.5 vminpu=0.92 daily="RES-Tipo04_DU"
 
New "Load.BT_UC1014460_3574_M1" bus1="3807453838461078.1.4" phases=1 conn=Wye model=1 kv=0.219 kw = 0.1233937 pf=0.92 status=variable vmaxpu=1.5 vminpu=0.92 daily="RES-Tipo04_DU" 
New "Load.BT_UC1014460_3574_M2" bus1="3807453838461078.1.4" phases=1 conn=Wye model=2 kv=0.219 kw = 0.1233937 pf=0.92 status=variable vmaxpu=1.5 vminpu=0.92 daily="RES-Tipo04_DU"
 
New "Load.BT_UI1020273_5151_M1" bus1="3806031638453271.1.4" phases=1 conn=Wye model=1 kv=0.219 kw = 0.1566522 pf=0.92 status=variable vmaxpu=1.5 vminpu=0.92 daily="RES-Tipo03_DU" 
New "Load.BT_UI1020273_5151_M2" bus1="3806031638453271.1.4" phases=1 conn=Wye model=2 kv=0.219 kw = 0.1566522 pf=0.92 status=variable vmaxpu=1.5 vminpu=0.92 daily="RES-Tipo03_DU"
 
New "Load.BT_UC1020368_5174_M1" bus1="3805174938462788.1.4" phases=1 conn=Wye model=1 kv=0.219 kw = 0.0859346 pf=0.92 status=variable vmaxpu=1.5 vminpu=0.92 daily="RES-Tipo04_DU" 
New "Load.BT_UC1020368_5174_M2" bus1="3805174938462788.1.4" phases=1 conn=Wye model=2 kv=0.219 kw = 0.0859346 pf=0.92 status=variable vmaxpu=1.5 vminpu=0.92 daily="RES-Tipo04_DU"
 
New "Load.BT_UC1020400_5184_M1" bus1="3805995038453516.1.4" phases=1 conn=Wye model=1 kv=0.219 kw = 0.0757739 pf=0.92 status=variable vmaxpu=1.5 vminpu=0.92 daily="RES-Tipo01_DU" 
New "Load.BT_UC1020400_5184_M2" bus1="3805995038453516.1.4" phases=1 conn=Wye model=2 kv=0.219 kw = 0.0757739 pf=0.92 status=variable vmaxpu=1.5 vminpu=0.92 daily="RES-Tipo01_DU"
 
New "Load.BT_UC1020402_5185_M1" bus1="3809916638429518.1.4" phases=1 conn=Wye model=1 kv=0.219 kw = 0.0299405 pf=0.92 status=variable vmaxpu=1.5 vminpu=0.92 daily="RES-Tipo02_DU" 
New "Load.BT_UC1020402_5185_M2" bus1="3809916638429518.1.4" phases=1 conn=Wye model=2 kv=0.219 kw = 0.0299405 pf=0.92 status=variable vmaxpu=1.5 vminpu=0.92 daily="RES-Tipo02_DU"
 
New "Load.BT_UC1035359_8903_M1" bus1="3825531638457853.1.4" phases=1 conn=Wye model=1 kv=0.219 kw = 0.0511889 pf=0.92 status=variable vmaxpu=1.5 vminpu=0.92 daily="RES-Tipo02_DU" 
New "Load.BT_UC1035359_8903_M2" bus1="3825531638457853.1.4" phases=1 conn=Wye model=2 kv=0.219 kw = 0.0511889 pf=0.92 status=variable vmaxpu=1.5 vminpu=0.92 daily="RES-Tipo02_DU"
 
New "Load.BT_UC1035361_8904_M1" bus1="3825551638457371.1.2.3.4" phases=3 conn=Wye model=1 kv=0.38 kw = 0.1314727 pf=0.92 status=variable vmaxpu=1.5 vminpu=0.92 daily="RES-Tipo04_DU" 
New "Load.BT_UC1035361_8904_M2" bus1="3825551638457371.1.2.3.4" phases=3 conn=Wye model=2 kv=0.38 kw = 0.1314727 pf=0.92 status=variable vmaxpu=1.5 vminpu=0.92 daily="RES-Tipo04_DU"
 
New "Load.BT_VC1035728_8996_M1" bus1="3812818338467120.1.4" phases=1 conn=Wye model=1 kv=0.219 kw = 0.1402866 pf=0.92 status=variable vmaxpu=1.5 vminpu=0.92 daily="RES-Tipo04_DU" 
New "Load.BT_VC1035728_8996_M2" bus1="3812818338467120.1.4" phases=1 conn=Wye model=2 kv=0.219 kw = 0.1402866 pf=0.92 status=variable vmaxpu=1.5 vminpu=0.92 daily="RES-Tipo04_DU"
 
New "Load.BT_UC1035731_8997_M1" bus1="3809433338452109.1.4" phases=1 conn=Wye model=1 kv=0.219 kw = 0.1534557 pf=0.92 status=variable vmaxpu=1.5 vminpu=0.92 daily="RES-Tipo03_DU" 
New "Load.BT_UC1035731_8997_M2" bus1="3809433338452109.1.4" phases=1 conn=Wye model=2 kv=0.219 kw = 0.1534557 pf=0.92 status=variable vmaxpu=1.5 vminpu=0.92 daily="RES-Tipo03_DU"
 
New "Load.BT_UC1040625_10090_M1" bus1="3826283338457485.1.4" phases=1 conn=Wye model=1 kv=0.219 kw = 0.1992788 pf=0.92 status=variable vmaxpu=1.5 vminpu=0.92 daily="RES-Tipo03_DU" 
New "Load.BT_UC1040625_10090_M2" bus1="3826283338457485.1.4" phases=1 conn=Wye model=2 kv=0.219 kw = 0.1992788 pf=0.92 status=variable vmaxpu=1.5 vminpu=0.92 daily="RES-Tipo03_DU"
 
New "Load.BT_UC1046353_11200_M1" bus1="3804826638462716.2.4" phases=1 conn=Wye model=1 kv=0.219 kw = 0.0820957 pf=0.92 status=variable vmaxpu=1.5 vminpu=0.92 daily="RES-Tipo02_DU" 
New "Load.BT_UC1046353_11200_M2" bus1="3804826638462716.2.4" phases=1 conn=Wye model=2 kv=0.219 kw = 0.0820957 pf=0.92 status=variable vmaxpu=1.5 vminpu=0.92 daily="RES-Tipo02_DU"
 
New "Load.BT_UC1046370_11204_M1" bus1="3819403338451361.2.4" phases=1 conn=Wye model=1 kv=0.219 kw = 0.3444683 pf=0.92 status=variable vmaxpu=1.5 vminpu=0.92 daily="RES-Tipo05_DU" 
New "Load.BT_UC1046370_11204_M2" bus1="3819403338451361.2.4" phases=1 conn=Wye model=2 kv=0.219 kw = 0.3444683 pf=0.92 status=variable vmaxpu=1.5 vminpu=0.92 daily="RES-Tipo05_DU"
 
New "Load.BT_UC1046371_11205_M1" bus1="3815733338448590.1.4" phases=1 conn=Wye model=1 kv=0.219 kw = 0.3899633 pf=0.92 status=variable vmaxpu=1.5 vminpu=0.92 daily="RES-Tipo05_DU" 
New "Load.BT_UC1046371_11205_M2" bus1="3815733338448590.1.4" phases=1 conn=Wye model=2 kv=0.219 kw = 0.3899633 pf=0.92 status=variable vmaxpu=1.5 vminpu=0.92 daily="RES-Tipo05_DU"
 
New "Load.BT_UC1051486_12383_M1" bus1="3808413338449433.1.4" phases=1 conn=Wye model=1 kv=0.219 kw = 0.2583512 pf=0.92 status=variable vmaxpu=1.5 vminpu=0.92 daily="RES-Tipo05_DU" 
New "Load.BT_UC1051486_12383_M2" bus1="3808413338449433.1.4" phases=1 conn=Wye model=2 kv=0.219 kw = 0.2583512 pf=0.92 status=variable vmaxpu=1.5 vminpu=0.92 daily="RES-Tipo05_DU"
 
New "Load.BT_UC1051488_12384_M1" bus1="3812516638448496.1.4" phases=1 conn=Wye model=1 kv=0.219 kw = 0.0632750 pf=0.92 status=variable vmaxpu=1.5 vminpu=0.92 daily="RES-Tipo01_DU" 
New "Load.BT_UC1051488_12384_M2" bus1="3812516638448496.1.4" phases=1 conn=Wye model=2 kv=0.219 kw = 0.0632750 pf=0.92 status=variable vmaxpu=1.5 vminpu=0.92 daily="RES-Tipo01_DU"
 
New "Load.BT_CL1069680_16624_M1" bus1="3814558938432578.1.4" phases=1 conn=Wye model=1 kv=0.219 kw = 0.3720899 pf=0.92 status=variable vmaxpu=1.5 vminpu=0.92 daily="RES-Tipo05_DU" 
New "Load.BT_CL1069680_16624_M2" bus1="3814558938432578.1.4" phases=1 conn=Wye model=2 kv=0.219 kw = 0.3720899 pf=0.92 status=variable vmaxpu=1.5 vminpu=0.92 daily="RES-Tipo05_DU"
 
New "Load.BT_UC1074474_17878_M1" bus1="3825416638455401.1.4" phases=1 conn=Wye model=1 kv=0.219 kw = 0.0125554 pf=0.92 status=variable vmaxpu=1.5 vminpu=0.92 daily="RES-Tipo02_DU" 
New "Load.BT_UC1074474_17878_M2" bus1="3825416638455401.1.4" phases=1 conn=Wye model=2 kv=0.219 kw = 0.0125554 pf=0.92 status=variable vmaxpu=1.5 vminpu=0.92 daily="RES-Tipo02_DU"
 
New "Load.BT_VC1074475_17879_M1" bus1="3830476638462875.1.4" phases=1 conn=Wye model=1 kv=0.219 kw = 0.1711350 pf=0.92 status=variable vmaxpu=1.5 vminpu=0.92 daily="RES-Tipo04_DU" 
New "Load.BT_VC1074475_17879_M2" bus1="3830476638462875.1.4" phases=1 conn=Wye model=2 kv=0.219 kw = 0.1711350 pf=0.92 status=variable vmaxpu=1.5 vminpu=0.92 daily="RES-Tipo04_DU"
 
New "Load.BT_VC0755325_17945_M1" bus1="3806993338458743.1.4" phases=1 conn=Wye model=1 kv=0.219 kw = 0.1344107 pf=0.92 status=variable vmaxpu=1.5 vminpu=0.92 daily="RES-Tipo04_DU" 
New "Load.BT_VC0755325_17945_M2" bus1="3806993338458743.1.4" phases=1 conn=Wye model=2 kv=0.219 kw = 0.1344107 pf=0.92 status=variable vmaxpu=1.5 vminpu=0.92 daily="RES-Tipo04_DU"
 
New "Load.BT_UC1080065_19367_M1" bus1="3823301638463163.1.4" phases=1 conn=Wye model=1 kv=0.219 kw = 0.2254870 pf=0.92 status=variable vmaxpu=1.5 vminpu=0.92 daily="RES-Tipo04_DU" 
New "Load.BT_UC1080065_19367_M2" bus1="3823301638463163.1.4" phases=1 conn=Wye model=2 kv=0.219 kw = 0.2254870 pf=0.92 status=variable vmaxpu=1.5 vminpu=0.92 daily="RES-Tipo04_DU"
 
New "Load.BT_VC1035728_19458_M1" bus1="3812818338467120.1.2.3.4" phases=3 conn=Wye model=1 kv=0.38 kw = 0.0000000 pf=0.92 status=variable vmaxpu=1.5 vminpu=0.92 daily="RES-Tipo03_DU" 
New "Load.BT_VC1035728_19458_M2" bus1="3812818338467120.1.2.3.4" phases=3 conn=Wye model=2 kv=0.38 kw = 0.0000000 pf=0.92 status=variable vmaxpu=1.5 vminpu=0.92 daily="RES-Tipo03_DU"
 
New "Load.BT_UC1085377_20817_M1" bus1="3825286638462331.1.2.3.4" phases=3 conn=Wye model=1 kv=0.38 kw = 0.2866612 pf=0.92 status=variable vmaxpu=1.5 vminpu=0.92 daily="COM-Tipo03_DU" 
New "Load.BT_UC1085377_20817_M2" bus1="3825286638462331.1.2.3.4" phases=3 conn=Wye model=2 kv=0.38 kw = 0.2866612 pf=0.92 status=variable vmaxpu=1.5 vminpu=0.92 daily="COM-Tipo03_DU"
 
New "Load.BT_UC1085378_20818_M1" bus1="3823126638463328.1.4" phases=1 conn=Wye model=1 kv=0.219 kw = 0.1799488 pf=0.92 status=variable vmaxpu=1.5 vminpu=0.92 daily="RES-Tipo04_DU" 
New "Load.BT_UC1085378_20818_M2" bus1="3823126638463328.1.4" phases=1 conn=Wye model=2 kv=0.219 kw = 0.1799488 pf=0.92 status=variable vmaxpu=1.5 vminpu=0.92 daily="RES-Tipo04_DU"
 
New "Load.BT_UC1085380_20819_M1" bus1="3823185438463209.1.2.3.4" phases=3 conn=Wye model=1 kv=0.38 kw = 0.0569839 pf=0.92 status=variable vmaxpu=1.5 vminpu=0.92 daily="RES-Tipo02_DU" 
New "Load.BT_UC1085380_20819_M2" bus1="3823185438463209.1.2.3.4" phases=3 conn=Wye model=2 kv=0.38 kw = 0.0569839 pf=0.92 status=variable vmaxpu=1.5 vminpu=0.92 daily="RES-Tipo02_DU"
 
New "Load.BT_CL1085693_20906_M1" bus1="3810242738459077.2.4" phases=1 conn=Wye model=1 kv=0.219 kw = 0.1300037 pf=0.92 status=variable vmaxpu=1.5 vminpu=0.92 daily="RES-Tipo04_DU" 
New "Load.BT_CL1085693_20906_M2" bus1="3810242738459077.2.4" phases=1 conn=Wye model=2 kv=0.219 kw = 0.1300037 pf=0.92 status=variable vmaxpu=1.5 vminpu=0.92 daily="RES-Tipo04_DU"
 
New "Load.BT_VC0760919_22140_M1" bus1="3825296638462534.1.4" phases=1 conn=Wye model=1 kv=0.219 kw = 0.1481269 pf=0.92 status=variable vmaxpu=1.5 vminpu=0.92 daily="RES-Tipo03_DU" 
New "Load.BT_VC0760919_22140_M2" bus1="3825296638462534.1.4" phases=1 conn=Wye model=2 kv=0.219 kw = 0.1481269 pf=0.92 status=variable vmaxpu=1.5 vminpu=0.92 daily="RES-Tipo03_DU"
 
New "Load.BT_UC1090408_22141_M1" bus1="3823376638463141.1.4" phases=1 conn=Wye model=1 kv=0.219 kw = 0.1300111 pf=0.92 status=variable vmaxpu=1.5 vminpu=0.92 daily="RES-Tipo03_DU" 
New "Load.BT_UC1090408_22141_M2" bus1="3823376638463141.1.4" phases=1 conn=Wye model=2 kv=0.219 kw = 0.1300111 pf=0.92 status=variable vmaxpu=1.5 vminpu=0.92 daily="RES-Tipo03_DU"
 
New "Load.BT_UC1090702_22226_M1" bus1="3807231638468291.1.4" phases=1 conn=Wye model=1 kv=0.219 kw = 0.1395525 pf=0.92 status=variable vmaxpu=1.5 vminpu=0.92 daily="RES-Tipo04_DU" 
New "Load.BT_UC1090702_22226_M2" bus1="3807231638468291.1.4" phases=1 conn=Wye model=2 kv=0.219 kw = 0.1395525 pf=0.92 status=variable vmaxpu=1.5 vminpu=0.92 daily="RES-Tipo04_DU"
 
New "Load.BT_VC1095175_23412_M1" bus1="3824723338451328.1.4" phases=1 conn=Wye model=1 kv=0.219 kw = 0.2306288 pf=0.92 status=variable vmaxpu=1.5 vminpu=0.92 daily="RES-Tipo04_DU" 
New "Load.BT_VC1095175_23412_M2" bus1="3824723338451328.1.4" phases=1 conn=Wye model=2 kv=0.219 kw = 0.2306288 pf=0.92 status=variable vmaxpu=1.5 vminpu=0.92 daily="RES-Tipo04_DU"
 
New "Load.BT_UC1095176_23413_M1" bus1="3829791638462948.1.4" phases=1 conn=Wye model=1 kv=0.219 kw = 0.1461625 pf=0.92 status=variable vmaxpu=1.5 vminpu=0.92 daily="RES-Tipo04_DU" 
New "Load.BT_UC1095176_23413_M2" bus1="3829791638462948.1.4" phases=1 conn=Wye model=2 kv=0.219 kw = 0.1461625 pf=0.92 status=variable vmaxpu=1.5 vminpu=0.92 daily="RES-Tipo04_DU"
 
New "Load.BT_UC1095179_23414_M1" bus1="3830415038462628.1.4" phases=1 conn=Wye model=1 kv=0.219 kw = 0.0463602 pf=0.92 status=variable vmaxpu=1.5 vminpu=0.92 daily="RES-Tipo02_DU" 
New "Load.BT_UC1095179_23414_M2" bus1="3830415038462628.1.4" phases=1 conn=Wye model=2 kv=0.219 kw = 0.0463602 pf=0.92 status=variable vmaxpu=1.5 vminpu=0.92 daily="RES-Tipo02_DU"
 
New "Load.BT_CL1095190_23415_M1" bus1="3824888638458347.1.4" phases=1 conn=Wye model=1 kv=0.219 kw = 0.1814178 pf=0.92 status=variable vmaxpu=1.5 vminpu=0.92 daily="RES-Tipo04_DU" 
New "Load.BT_CL1095190_23415_M2" bus1="3824888638458347.1.4" phases=1 conn=Wye model=2 kv=0.219 kw = 0.1814178 pf=0.92 status=variable vmaxpu=1.5 vminpu=0.92 daily="RES-Tipo04_DU"
 
New "Load.BT_UC1095451_23482_M1" bus1="3807634938462529.2.4" phases=1 conn=Wye model=1 kv=0.219 kw = 0.0550523 pf=0.92 status=variable vmaxpu=1.5 vminpu=0.92 daily="RES-Tipo02_DU" 
New "Load.BT_UC1095451_23482_M2" bus1="3807634938462529.2.4" phases=1 conn=Wye model=2 kv=0.219 kw = 0.0550523 pf=0.92 status=variable vmaxpu=1.5 vminpu=0.92 daily="RES-Tipo02_DU"
 
New "Load.BT_UC1095454_23484_M1" bus1="3826661638463251.1.4" phases=1 conn=Wye model=1 kv=0.219 kw = 0.0648374 pf=0.92 status=variable vmaxpu=1.5 vminpu=0.92 daily="RES-Tipo01_DU" 
New "Load.BT_UC1095454_23484_M2" bus1="3826661638463251.1.4" phases=1 conn=Wye model=2 kv=0.219 kw = 0.0648374 pf=0.92 status=variable vmaxpu=1.5 vminpu=0.92 daily="RES-Tipo01_DU"
 
New "Load.BT_UC1095458_23485_M1" bus1="3827327038463236.1.4" phases=1 conn=Wye model=1 kv=0.219 kw = 0.1204196 pf=0.92 status=variable vmaxpu=1.5 vminpu=0.92 daily="RES-Tipo03_DU" 
New "Load.BT_UC1095458_23485_M2" bus1="3827327038463236.1.4" phases=1 conn=Wye model=2 kv=0.219 kw = 0.1204196 pf=0.92 status=variable vmaxpu=1.5 vminpu=0.92 daily="RES-Tipo03_DU"
 
New "Load.BT_UC1095459_23486_M1" bus1="3829331638462691.1.4" phases=1 conn=Wye model=1 kv=0.219 kw = 0.1214858 pf=0.92 status=variable vmaxpu=1.5 vminpu=0.92 daily="RES-Tipo03_DU" 
New "Load.BT_UC1095459_23486_M2" bus1="3829331638462691.1.4" phases=1 conn=Wye model=2 kv=0.219 kw = 0.1214858 pf=0.92 status=variable vmaxpu=1.5 vminpu=0.92 daily="RES-Tipo03_DU"
 
New "Load.BT_UC1095460_23487_M1" bus1="3828066638462990.1.4" phases=1 conn=Wye model=1 kv=0.219 kw = 0.0913974 pf=0.92 status=variable vmaxpu=1.5 vminpu=0.92 daily="RES-Tipo01_DU" 
New "Load.BT_UC1095460_23487_M2" bus1="3828066638462990.1.4" phases=1 conn=Wye model=2 kv=0.219 kw = 0.0913974 pf=0.92 status=variable vmaxpu=1.5 vminpu=0.92 daily="RES-Tipo01_DU"
 
New "Load.BT_UC1099580_24504_M1" bus1="3824008338456013.1.4" phases=1 conn=Wye model=1 kv=0.219 kw = 0.2379737 pf=0.92 status=variable vmaxpu=1.5 vminpu=0.92 daily="RES-Tipo04_DU" 
New "Load.BT_UC1099580_24504_M2" bus1="3824008338456013.1.4" phases=1 conn=Wye model=2 kv=0.219 kw = 0.2379737 pf=0.92 status=variable vmaxpu=1.5 vminpu=0.92 daily="RES-Tipo04_DU"
 
New "Load.BT_UC1099587_24505_M1" bus1="3836291638455716.1.2.3.4" phases=3 conn=Wye model=1 kv=0.38 kw = 0.1641124 pf=0.92 status=variable vmaxpu=1.5 vminpu=0.92 daily="RES-Tipo03_DU" 
New "Load.BT_UC1099587_24505_M2" bus1="3836291638455716.1.2.3.4" phases=3 conn=Wye model=2 kv=0.38 kw = 0.1641124 pf=0.92 status=variable vmaxpu=1.5 vminpu=0.92 daily="RES-Tipo03_DU"
 
New "Load.BT_UC1099588_24506_M1" bus1="3836413338456273.1.4" phases=1 conn=Wye model=1 kv=0.219 kw = 0.0948436 pf=0.92 status=variable vmaxpu=1.5 vminpu=0.92 daily="RES-Tipo03_DU" 
New "Load.BT_UC1099588_24506_M2" bus1="3836413338456273.1.4" phases=1 conn=Wye model=2 kv=0.219 kw = 0.0948436 pf=0.92 status=variable vmaxpu=1.5 vminpu=0.92 daily="RES-Tipo03_DU"
 
New "Load.BT_VC1099597_24509_M1" bus1="3824172338461990.1.4" phases=1 conn=Wye model=1 kv=0.219 kw = 0.0299405 pf=0.92 status=variable vmaxpu=1.5 vminpu=0.92 daily="RES-Tipo02_DU" 
New "Load.BT_VC1099597_24509_M2" bus1="3824172338461990.1.4" phases=1 conn=Wye model=2 kv=0.219 kw = 0.0299405 pf=0.92 status=variable vmaxpu=1.5 vminpu=0.92 daily="RES-Tipo02_DU"
 
New "Load.BT_UC1099816_24576_M1" bus1="3808339938463588.1.4" phases=1 conn=Wye model=1 kv=0.219 kw = 0.1204196 pf=0.92 status=variable vmaxpu=1.5 vminpu=0.92 daily="RES-Tipo03_DU" 
New "Load.BT_UC1099816_24576_M2" bus1="3808339938463588.1.4" phases=1 conn=Wye model=2 kv=0.219 kw = 0.1204196 pf=0.92 status=variable vmaxpu=1.5 vminpu=0.92 daily="RES-Tipo03_DU"
 
New "Load.BT_UC1099831_24580_M1" bus1="3828781638463063.1.4" phases=1 conn=Wye model=1 kv=0.219 kw = 0.1353389 pf=0.92 status=variable vmaxpu=1.5 vminpu=0.92 daily="RES-Tipo03_DU" 
New "Load.BT_UC1099831_24580_M2" bus1="3828781638463063.1.4" phases=1 conn=Wye model=2 kv=0.219 kw = 0.1353389 pf=0.92 status=variable vmaxpu=1.5 vminpu=0.92 daily="RES-Tipo03_DU"
 
New "Load.BT_UC1099835_24581_M1" bus1="3828374938462558.1.4" phases=1 conn=Wye model=1 kv=0.219 kw = 0.1961075 pf=0.92 status=variable vmaxpu=1.5 vminpu=0.92 daily="RES-Tipo04_DU" 
New "Load.BT_UC1099835_24581_M2" bus1="3828374938462558.1.4" phases=1 conn=Wye model=2 kv=0.219 kw = 0.1961075 pf=0.92 status=variable vmaxpu=1.5 vminpu=0.92 daily="RES-Tipo04_DU"
 
New "Load.BT_UC1099838_24582_M1" bus1="3828195038462288.1.4" phases=1 conn=Wye model=1 kv=0.219 kw = 0.1310762 pf=0.92 status=variable vmaxpu=1.5 vminpu=0.92 daily="RES-Tipo03_DU" 
New "Load.BT_UC1099838_24582_M2" bus1="3828195038462288.1.4" phases=1 conn=Wye model=2 kv=0.219 kw = 0.1310762 pf=0.92 status=variable vmaxpu=1.5 vminpu=0.92 daily="RES-Tipo03_DU"
 
New "Load.BT_UC1099839_24583_M1" bus1="3828296638462083.1.4" phases=1 conn=Wye model=1 kv=0.219 kw = 0.1502582 pf=0.92 status=variable vmaxpu=1.5 vminpu=0.92 daily="RES-Tipo03_DU" 
New "Load.BT_UC1099839_24583_M2" bus1="3828296638462083.1.4" phases=1 conn=Wye model=2 kv=0.219 kw = 0.1502582 pf=0.92 status=variable vmaxpu=1.5 vminpu=0.92 daily="RES-Tipo03_DU"
 
New "Load.BT_UC1099842_24584_M1" bus1="3829668138463000.1.4" phases=1 conn=Wye model=1 kv=0.219 kw = 0.1446935 pf=0.92 status=variable vmaxpu=1.5 vminpu=0.92 daily="RES-Tipo04_DU" 
New "Load.BT_UC1099842_24584_M2" bus1="3829668138463000.1.4" phases=1 conn=Wye model=2 kv=0.219 kw = 0.1446935 pf=0.92 status=variable vmaxpu=1.5 vminpu=0.92 daily="RES-Tipo04_DU"
 
New "Load.BT_UC1099843_24585_M1" bus1="3829458338462566.1.4" phases=1 conn=Wye model=1 kv=0.219 kw = 0.2745997 pf=0.92 status=variable vmaxpu=1.5 vminpu=0.92 daily="RES-Tipo05_DU" 
New "Load.BT_UC1099843_24585_M2" bus1="3829458338462566.1.4" phases=1 conn=Wye model=2 kv=0.219 kw = 0.2745997 pf=0.92 status=variable vmaxpu=1.5 vminpu=0.92 daily="RES-Tipo05_DU"
 
New "Load.BT_UC1099851_24586_M1" bus1="3830338538462165.1.4" phases=1 conn=Wye model=1 kv=0.219 kw = 0.1255968 pf=0.92 status=variable vmaxpu=1.5 vminpu=0.92 daily="RES-Tipo04_DU" 
New "Load.BT_UC1099851_24586_M2" bus1="3830338538462165.1.4" phases=1 conn=Wye model=2 kv=0.219 kw = 0.1255968 pf=0.92 status=variable vmaxpu=1.5 vminpu=0.92 daily="RES-Tipo04_DU"
 
New "Load.BT_UC184537_44480_M1" bus1="3808760038470724.1.4" phases=1 conn=Wye model=1 kv=0.219 kw = 0.3047801 pf=0.92 status=variable vmaxpu=1.5 vminpu=0.92 daily="RES-Tipo03_DU" 
New "Load.BT_UC184537_44480_M2" bus1="3808760038470724.1.4" phases=1 conn=Wye model=2 kv=0.219 kw = 0.3047801 pf=0.92 status=variable vmaxpu=1.5 vminpu=0.92 daily="RES-Tipo03_DU"
 
New "Load.BT_UI0755293_189121_M1" bus1="3807597938461579.2.4" phases=1 conn=Wye model=1 kv=0.219 kw = 0.4598318 pf=0.92 status=variable vmaxpu=1.5 vminpu=0.92 daily="RES-Tipo05_DU" 
New "Load.BT_UI0755293_189121_M2" bus1="3807597938461579.2.4" phases=1 conn=Wye model=2 kv=0.219 kw = 0.4598318 pf=0.92 status=variable vmaxpu=1.5 vminpu=0.92 daily="RES-Tipo05_DU"
 
New "Load.BT_UC755295_189122_M1" bus1="3808181738461663.3.4" phases=1 conn=Wye model=1 kv=0.219 kw = 0.2329119 pf=0.92 status=variable vmaxpu=1.5 vminpu=0.92 daily="COM-Tipo03_DU" 
New "Load.BT_UC755295_189122_M2" bus1="3808181738461663.3.4" phases=1 conn=Wye model=2 kv=0.219 kw = 0.2329119 pf=0.92 status=variable vmaxpu=1.5 vminpu=0.92 daily="COM-Tipo03_DU"
 
New "Load.BT_UC0755296_189123_M1" bus1="3807619938461476.3.4" phases=1 conn=Wye model=1 kv=0.219 kw = 0.2770366 pf=0.92 status=variable vmaxpu=1.5 vminpu=0.92 daily="RES-Tipo05_DU" 
New "Load.BT_UC0755296_189123_M2" bus1="3807619938461476.3.4" phases=1 conn=Wye model=2 kv=0.219 kw = 0.2770366 pf=0.92 status=variable vmaxpu=1.5 vminpu=0.92 daily="RES-Tipo05_DU"
 
New "Load.BT_UC0755297_189124_M1" bus1="3807729938461568.2.4" phases=1 conn=Wye model=1 kv=0.219 kw = 0.1968424 pf=0.92 status=variable vmaxpu=1.5 vminpu=0.92 daily="RES-Tipo04_DU" 
New "Load.BT_UC0755297_189124_M2" bus1="3807729938461568.2.4" phases=1 conn=Wye model=2 kv=0.219 kw = 0.1968424 pf=0.92 status=variable vmaxpu=1.5 vminpu=0.92 daily="RES-Tipo04_DU"
 
New "Load.BT_UC0755299_189125_M1" bus1="3807671638461276.3.4" phases=1 conn=Wye model=1 kv=0.219 kw = 0.0859591 pf=0.92 status=variable vmaxpu=1.5 vminpu=0.92 daily="RES-Tipo02_DU" 
New "Load.BT_UC0755299_189125_M2" bus1="3807671638461276.3.4" phases=1 conn=Wye model=2 kv=0.219 kw = 0.0859591 pf=0.92 status=variable vmaxpu=1.5 vminpu=0.92 daily="RES-Tipo02_DU"
 
New "Load.BT_UC0755305_189126_M1" bus1="3807428338460786.3.4" phases=1 conn=Wye model=1 kv=0.219 kw = 0.2254870 pf=0.92 status=variable vmaxpu=1.5 vminpu=0.92 daily="RES-Tipo04_DU" 
New "Load.BT_UC0755305_189126_M2" bus1="3807428338460786.3.4" phases=1 conn=Wye model=2 kv=0.219 kw = 0.2254870 pf=0.92 status=variable vmaxpu=1.5 vminpu=0.92 daily="RES-Tipo04_DU"
 
New "Load.BT_UC0755312_189127_M1" bus1="3807651638459781.3.4" phases=1 conn=Wye model=1 kv=0.219 kw = 0.1564453 pf=0.92 status=variable vmaxpu=1.5 vminpu=0.92 daily="RES-Tipo04_DU" 
New "Load.BT_UC0755312_189127_M2" bus1="3807651638459781.3.4" phases=1 conn=Wye model=2 kv=0.219 kw = 0.1564453 pf=0.92 status=variable vmaxpu=1.5 vminpu=0.92 daily="RES-Tipo04_DU"
 
New "Load.BT_UC0755315_189128_M1" bus1="3807283338459868.3.4" phases=1 conn=Wye model=1 kv=0.219 kw = 0.2745997 pf=0.92 status=variable vmaxpu=1.5 vminpu=0.92 daily="RES-Tipo05_DU" 
New "Load.BT_UC0755315_189128_M2" bus1="3807283338459868.3.4" phases=1 conn=Wye model=2 kv=0.219 kw = 0.2745997 pf=0.92 status=variable vmaxpu=1.5 vminpu=0.92 daily="RES-Tipo05_DU"
 
New "Load.BT_UC0755320_189129_M1" bus1="3807148338459341.3.4" phases=1 conn=Wye model=1 kv=0.219 kw = 0.1564453 pf=0.92 status=variable vmaxpu=1.5 vminpu=0.92 daily="RES-Tipo04_DU" 
New "Load.BT_UC0755320_189129_M2" bus1="3807148338459341.3.4" phases=1 conn=Wye model=2 kv=0.219 kw = 0.1564453 pf=0.92 status=variable vmaxpu=1.5 vminpu=0.92 daily="RES-Tipo04_DU"
 
New "Load.BT_UI0755336_189130_M1" bus1="3805236638457386.1.2.3.4" phases=3 conn=Wye model=1 kv=0.38 kw = 0.0812425 pf=0.92 status=variable vmaxpu=1.5 vminpu=0.92 daily="RES-Tipo01_DU" 
New "Load.BT_UI0755336_189130_M2" bus1="3805236638457386.1.2.3.4" phases=3 conn=Wye model=2 kv=0.38 kw = 0.0812425 pf=0.92 status=variable vmaxpu=1.5 vminpu=0.92 daily="RES-Tipo01_DU"
 
New "Load.BT_UI0755342_189132_M1" bus1="3803786638456638.3.4" phases=1 conn=Wye model=1 kv=0.219 kw = 0.0594930 pf=0.92 status=variable vmaxpu=1.5 vminpu=0.92 daily="RES-Tipo04_DU" 
New "Load.BT_UI0755342_189132_M2" bus1="3803786638456638.3.4" phases=1 conn=Wye model=2 kv=0.219 kw = 0.0594930 pf=0.92 status=variable vmaxpu=1.5 vminpu=0.92 daily="RES-Tipo04_DU"
 
New "Load.BT_UI0755347_189133_M1" bus1="3806675038456866.3.4" phases=1 conn=Wye model=1 kv=0.219 kw = 0.0473256 pf=0.92 status=variable vmaxpu=1.5 vminpu=0.92 daily="RES-Tipo02_DU" 
New "Load.BT_UI0755347_189133_M2" bus1="3806675038456866.3.4" phases=1 conn=Wye model=2 kv=0.219 kw = 0.0473256 pf=0.92 status=variable vmaxpu=1.5 vminpu=0.92 daily="RES-Tipo02_DU"
 
New "Load.BT_UI0755349_189134_M1" bus1="3806681638456979.2.4" phases=1 conn=Wye model=1 kv=0.219 kw = 0.1939045 pf=0.92 status=variable vmaxpu=1.5 vminpu=0.92 daily="RES-Tipo04_DU" 
New "Load.BT_UI0755349_189134_M2" bus1="3806681638456979.2.4" phases=1 conn=Wye model=2 kv=0.219 kw = 0.1939045 pf=0.92 status=variable vmaxpu=1.5 vminpu=0.92 daily="RES-Tipo04_DU"
 
New "Load.BT_UC0755353_189135_M1" bus1="3806276038455595.1.2.3.4" phases=3 conn=Wye model=1 kv=0.38 kw = 0.5345749 pf=0.92 status=variable vmaxpu=1.5 vminpu=0.92 daily="RES-Tipo05_DU" 
New "Load.BT_UC0755353_189135_M2" bus1="3806276038455595.1.2.3.4" phases=3 conn=Wye model=2 kv=0.38 kw = 0.5345749 pf=0.92 status=variable vmaxpu=1.5 vminpu=0.92 daily="RES-Tipo05_DU"
 
New "Load.BT_UC0755357_189136_M1" bus1="3807558338455398.1.2.3.4" phases=3 conn=Wye model=1 kv=0.38 kw = 0.0695245 pf=0.92 status=variable vmaxpu=1.5 vminpu=0.92 daily="RES-Tipo01_DU" 
New "Load.BT_UC0755357_189136_M2" bus1="3807558338455398.1.2.3.4" phases=3 conn=Wye model=2 kv=0.38 kw = 0.0695245 pf=0.92 status=variable vmaxpu=1.5 vminpu=0.92 daily="RES-Tipo01_DU"
 
New "Load.BT_UC0755359_189137_M1" bus1="3808071638455184.3.4" phases=1 conn=Wye model=1 kv=0.219 kw = 0.0000000 pf=0.92 status=variable vmaxpu=1.5 vminpu=0.92 daily="RES-Tipo05_DU" 
New "Load.BT_UC0755359_189137_M2" bus1="3808071638455184.3.4" phases=1 conn=Wye model=2 kv=0.219 kw = 0.0000000 pf=0.92 status=variable vmaxpu=1.5 vminpu=0.92 daily="RES-Tipo05_DU"
 
New "Load.BT_VC0755360_189138_M1" bus1="3808574938455923.3.4" phases=1 conn=Wye model=1 kv=0.219 kw = 0.3054719 pf=0.92 status=variable vmaxpu=1.5 vminpu=0.92 daily="RES-Tipo05_DU" 
New "Load.BT_VC0755360_189138_M2" bus1="3808574938455923.3.4" phases=1 conn=Wye model=2 kv=0.219 kw = 0.3054719 pf=0.92 status=variable vmaxpu=1.5 vminpu=0.92 daily="RES-Tipo05_DU"
 
New "Load.BT_UC0755361_189139_M1" bus1="3808935038456016.3.4" phases=1 conn=Wye model=1 kv=0.219 kw = 0.4143360 pf=0.92 status=variable vmaxpu=1.5 vminpu=0.92 daily="RES-Tipo05_DU" 
New "Load.BT_UC0755361_189139_M2" bus1="3808935038456016.3.4" phases=1 conn=Wye model=2 kv=0.219 kw = 0.4143360 pf=0.92 status=variable vmaxpu=1.5 vminpu=0.92 daily="RES-Tipo05_DU"
 
New "Load.BT_UC0755399_189141_M1" bus1="3806209938462766.1.2.3.4" phases=3 conn=Wye model=1 kv=0.38 kw = 0.1042971 pf=0.92 status=variable vmaxpu=1.5 vminpu=0.92 daily="RES-Tipo04_DU" 
New "Load.BT_UC0755399_189141_M2" bus1="3806209938462766.1.2.3.4" phases=3 conn=Wye model=2 kv=0.38 kw = 0.1042971 pf=0.92 status=variable vmaxpu=1.5 vminpu=0.92 daily="RES-Tipo04_DU"
 
New "Load.BT_UC0755489_189165_M1" bus1="3808281638458943.3.4" phases=1 conn=Wye model=1 kv=0.219 kw = 0.0257067 pf=0.92 status=variable vmaxpu=1.5 vminpu=0.92 daily="RES-Tipo04_DU" 
New "Load.BT_UC0755489_189165_M2" bus1="3808281638458943.3.4" phases=1 conn=Wye model=2 kv=0.219 kw = 0.0257067 pf=0.92 status=variable vmaxpu=1.5 vminpu=0.92 daily="RES-Tipo04_DU"
 
New "Load.BT_UC0755490_189166_M1" bus1="3808681638459693.3.4" phases=1 conn=Wye model=1 kv=0.219 kw = 0.2973476 pf=0.92 status=variable vmaxpu=1.5 vminpu=0.92 daily="RES-Tipo05_DU" 
New "Load.BT_UC0755490_189166_M2" bus1="3808681638459693.3.4" phases=1 conn=Wye model=2 kv=0.219 kw = 0.2973476 pf=0.92 status=variable vmaxpu=1.5 vminpu=0.92 daily="RES-Tipo05_DU"
 
New "Load.BT_UC755768_189236_M1" bus1="3825024538458662.3.4" phases=1 conn=Wye model=1 kv=0.219 kw = 0.1622608 pf=0.92 status=variable vmaxpu=1.5 vminpu=0.92 daily="RES-Tipo02_DU" 
New "Load.BT_UC755768_189236_M2" bus1="3825024538458662.3.4" phases=1 conn=Wye model=2 kv=0.219 kw = 0.1622608 pf=0.92 status=variable vmaxpu=1.5 vminpu=0.92 daily="RES-Tipo02_DU"
 
New "Load.BT_UC0760757_190531_M1" bus1="3809348338453030.2.4" phases=1 conn=Wye model=1 kv=0.219 kw = 0.1630462 pf=0.92 status=variable vmaxpu=1.5 vminpu=0.92 daily="RES-Tipo03_DU" 
New "Load.BT_UC0760757_190531_M2" bus1="3809348338453030.2.4" phases=1 conn=Wye model=2 kv=0.219 kw = 0.1630462 pf=0.92 status=variable vmaxpu=1.5 vminpu=0.92 daily="RES-Tipo03_DU"
 
New "Load.BT_UC0760758_190532_M1" bus1="3809478338452841.3.4" phases=1 conn=Wye model=1 kv=0.219 kw = 0.0676087 pf=0.92 status=variable vmaxpu=1.5 vminpu=0.92 daily="RES-Tipo02_DU" 
New "Load.BT_UC0760758_190532_M2" bus1="3809478338452841.3.4" phases=1 conn=Wye model=2 kv=0.219 kw = 0.0676087 pf=0.92 status=variable vmaxpu=1.5 vminpu=0.92 daily="RES-Tipo02_DU"
 
New "Load.BT_UC0760759_190533_M1" bus1="3809420038452656.1.4" phases=1 conn=Wye model=1 kv=0.219 kw = 0.1828868 pf=0.92 status=variable vmaxpu=1.5 vminpu=0.92 daily="RES-Tipo04_DU" 
New "Load.BT_UC0760759_190533_M2" bus1="3809420038452656.1.4" phases=1 conn=Wye model=2 kv=0.219 kw = 0.1828868 pf=0.92 status=variable vmaxpu=1.5 vminpu=0.92 daily="RES-Tipo04_DU"
 
New "Load.BT_UC0760760_190534_M1" bus1="3809799938452563.3.4" phases=1 conn=Wye model=1 kv=0.219 kw = 0.1637901 pf=0.92 status=variable vmaxpu=1.5 vminpu=0.92 daily="RES-Tipo04_DU" 
New "Load.BT_UC0760760_190534_M2" bus1="3809799938452563.3.4" phases=1 conn=Wye model=2 kv=0.219 kw = 0.1637901 pf=0.92 status=variable vmaxpu=1.5 vminpu=0.92 daily="RES-Tipo04_DU"
 
New "Load.BT_UC0760770_190535_M1" bus1="3809379938451743.3.4" phases=1 conn=Wye model=1 kv=0.219 kw = 0.1332076 pf=0.92 status=variable vmaxpu=1.5 vminpu=0.92 daily="RES-Tipo03_DU" 
New "Load.BT_UC0760770_190535_M2" bus1="3809379938451743.3.4" phases=1 conn=Wye model=2 kv=0.219 kw = 0.1332076 pf=0.92 status=variable vmaxpu=1.5 vminpu=0.92 daily="RES-Tipo03_DU"
 
New "Load.BT_UC0760771_190536_M1" bus1="3809133338451110.3.4" phases=1 conn=Wye model=1 kv=0.219 kw = 0.1770109 pf=0.92 status=variable vmaxpu=1.5 vminpu=0.92 daily="RES-Tipo04_DU" 
New "Load.BT_UC0760771_190536_M2" bus1="3809133338451110.3.4" phases=1 conn=Wye model=2 kv=0.219 kw = 0.1770109 pf=0.92 status=variable vmaxpu=1.5 vminpu=0.92 daily="RES-Tipo04_DU"
 
New "Load.BT_VC0760773_190537_M1" bus1="3809020438450725.3.4" phases=1 conn=Wye model=1 kv=0.219 kw = 0.1705064 pf=0.92 status=variable vmaxpu=1.5 vminpu=0.92 daily="RES-Tipo03_DU" 
New "Load.BT_VC0760773_190537_M2" bus1="3809020438450725.3.4" phases=1 conn=Wye model=2 kv=0.219 kw = 0.1705064 pf=0.92 status=variable vmaxpu=1.5 vminpu=0.92 daily="RES-Tipo03_DU"
 
New "Load.BT_UC0760777_190538_M1" bus1="3810021638451353.3.4" phases=1 conn=Wye model=1 kv=0.219 kw = 0.1711350 pf=0.92 status=variable vmaxpu=1.5 vminpu=0.92 daily="RES-Tipo04_DU" 
New "Load.BT_UC0760777_190538_M2" bus1="3810021638451353.3.4" phases=1 conn=Wye model=2 kv=0.219 kw = 0.1711350 pf=0.92 status=variable vmaxpu=1.5 vminpu=0.92 daily="RES-Tipo04_DU"
 
New "Load.BT_UC0760778_190539_M1" bus1="3810266638451501.1.2.3.4" phases=3 conn=Wye model=1 kv=0.38 kw = 0.5058727 pf=0.92 status=variable vmaxpu=1.5 vminpu=0.92 daily="COM-Tipo03_DU" 