New "LoadShape.PVIrrad_diaria" npts=24 interval=1 
~ mult = [0 0 0 0 0 0 0.1 0.2 0.3 0.5 0.8 0.9 1.0 1.0 0.99 0.9 0.7 0.4 0.1 0 0 0 0 0]

!Curva PT
!Pmpp especificado a 25 graus Celsius
New XYCurve.MyPvsT npts=4  xarray=[0  25  75  100]  yarray=[1.2 1.0 0.8  0.6] 

!Curva de eficiência
New XYCurve.MyEff npts=4  xarray=[0.1  0.2  0.4  1.0]  yarray=[0.86  0.9  0.93  0.97]  


!Curva de Temperatura
New Tshape.MyTemp npts=24 interval=1 temp=[25, 25, 25, 25, 25, 25, 25, 25, 35, 40, 45, 50, 60, 60, 55, 40, 35, 30, 25, 25, 25, 25, 25, 25]

New "PVsystem.GD.CE.000.135.286" phases=3 bus1=3824043038424115.1.2.3.4 conn=Wye kv=0.38 pf=0.92 pmpp=1.596 kva=2.0 irradiance=0.98 
~ temperature=25 %cutin=0.1 %cutout=0.1 effcurve=Myeff P-TCurve=MyPvsT Daily=PVIrrad_diaria TDaily=MyTemp 

New "PVsystem.GD.CE.001.570.105" phases=1 bus1=3818524938438060.1.4 conn=Wye kv=0.219 pf=0.92 pmpp=5.0 kva=5.0 irradiance=0.98 
~ temperature=25 %cutin=0.1 %cutout=0.1 effcurve=Myeff P-TCurve=MyPvsT Daily=PVIrrad_diaria TDaily=MyTemp 

New "PVsystem.GD.CE.000.534.328" phases=3 bus1=3824043038424115.1.2.3.4 conn=Wye kv=0.38 pf=0.92 pmpp=5.426 kva=6.0 irradiance=0.98 
~ temperature=25 %cutin=0.1 %cutout=0.1 effcurve=Myeff P-TCurve=MyPvsT Daily=PVIrrad_diaria TDaily=MyTemp 

New "PVsystem.GD.CE.000.470.665" phases=3 bus1=3809776538437426.1.2.3.4 conn=Wye kv=0.38 pf=0.92 pmpp=0.624 kva=1.0 irradiance=0.98 
~ temperature=25 %cutin=0.1 %cutout=0.1 effcurve=Myeff P-TCurve=MyPvsT Daily=PVIrrad_diaria TDaily=MyTemp 

New "PVsystem.GD.CE.000.180.486" phases=3 bus1=3824043038424115.1.2.3.4 conn=Wye kv=0.38 pf=0.92 pmpp=1.09 kva=2.0 irradiance=0.98 
~ temperature=25 %cutin=0.1 %cutout=0.1 effcurve=Myeff P-TCurve=MyPvsT Daily=PVIrrad_diaria TDaily=MyTemp 

New "PVsystem.GD.CE.001.936.703" phases=3 bus1=3808169638471263.1.2.3.4 conn=Wye kv=0.38 pf=0.92 pmpp=74.0 kva=74.0 irradiance=0.98 
~ temperature=25 %cutin=0.1 %cutout=0.1 effcurve=Myeff P-TCurve=MyPvsT Daily=PVIrrad_diaria TDaily=MyTemp 

New "PVsystem.GD.CE.000.340.641" phases=3 bus1=3823500738424827.1.2.3.4 conn=Wye kv=0.38 pf=0.92 pmpp=2.224 kva=3.0 irradiance=0.98 
~ temperature=25 %cutin=0.1 %cutout=0.1 effcurve=Myeff P-TCurve=MyPvsT Daily=PVIrrad_diaria TDaily=MyTemp 

New "PVsystem.GD.CE.000.447.588" phases=3 bus1=3815781638437061.1.2.3.4 conn=Wye kv=0.38 pf=0.92 pmpp=1.5 kva=2.0 irradiance=0.98 
~ temperature=25 %cutin=0.1 %cutout=0.1 effcurve=Myeff P-TCurve=MyPvsT Daily=PVIrrad_diaria TDaily=MyTemp 

New "PVsystem.GD.CE.000.130.524" phases=3 bus1=3821945738426233.1.2.3.4 conn=Wye kv=0.38 pf=0.92 pmpp=1.838 kva=2.0 irradiance=0.98 
~ temperature=25 %cutin=0.1 %cutout=0.1 effcurve=Myeff P-TCurve=MyPvsT Daily=PVIrrad_diaria TDaily=MyTemp 

New "PVsystem.GD.CE.001.637.613" phases=3 bus1=3807404938451876.1.2.3.4 conn=Wye kv=0.38 pf=0.92 pmpp=8.0 kva=8.0 irradiance=0.98 
~ temperature=25 %cutin=0.1 %cutout=0.1 effcurve=Myeff P-TCurve=MyPvsT Daily=PVIrrad_diaria TDaily=MyTemp 

New "PVsystem.GD.CE.000.138.739" phases=3 bus1=3824884338424033.1.2.3.4 conn=Wye kv=0.38 pf=0.92 pmpp=2.968 kva=3.0 irradiance=0.98 
~ temperature=25 %cutin=0.1 %cutout=0.1 effcurve=Myeff P-TCurve=MyPvsT Daily=PVIrrad_diaria TDaily=MyTemp 

New "PVsystem.GD.CE.000.947.077" phases=3 bus1=3822823038426034.1.2.3.4 conn=Wye kv=0.38 pf=0.92 pmpp=2.426 kva=3.0 irradiance=0.98 
~ temperature=25 %cutin=0.1 %cutout=0.1 effcurve=Myeff P-TCurve=MyPvsT Daily=PVIrrad_diaria TDaily=MyTemp 

New "PVsystem.GD.CE.000.930.178" phases=3 bus1=3831988338423691.1.2.3.4 conn=Wye kv=0.38 pf=0.92 pmpp=3.284 kva=4.0 irradiance=0.98 
~ temperature=25 %cutin=0.1 %cutout=0.1 effcurve=Myeff P-TCurve=MyPvsT Daily=PVIrrad_diaria TDaily=MyTemp 

New "PVsystem.GD.CE.000.938.746" phases=3 bus1=3823721838424324.1.2.3.4 conn=Wye kv=0.38 pf=0.92 pmpp=2.429 kva=3.0 irradiance=0.98 
~ temperature=25 %cutin=0.1 %cutout=0.1 effcurve=Myeff P-TCurve=MyPvsT Daily=PVIrrad_diaria TDaily=MyTemp 


New "PVsystem.GD.CE.001.015.056" phases=1 bus1=3827571438424527.3.4 conn=Wye kv=0.219 pf=0.92 pmpp=1.234 kva=2.0 irradiance=0.98 
~ temperature=25 %cutin=0.1 %cutout=0.1 effcurve=Myeff P-TCurve=MyPvsT Daily=PVIrrad_diaria TDaily=MyTemp 

New "PVsystem.GD.CE.001.359.618" phases=1 bus1=3808394938469804.2.4 conn=Wye kv=0.219 pf=0.92 pmpp=0.785 kva=1.0 irradiance=0.98 
~ temperature=25 %cutin=0.1 %cutout=0.1 effcurve=Myeff P-TCurve=MyPvsT Daily=PVIrrad_diaria TDaily=MyTemp 

New "PVsystem.GD.CE.000.106.038" phases=1 bus1=3806294938453405.2.4 conn=Wye kv=0.219 pf=0.92 pmpp=0.984 kva=1.0 irradiance=0.98 
~ temperature=25 %cutin=0.1 %cutout=0.1 effcurve=Myeff P-TCurve=MyPvsT Daily=PVIrrad_diaria TDaily=MyTemp 

New "PVsystem.GD.CE.001.366.169" phases=3 bus1=3793591838471706.1.2.3.4 conn=Wye kv=0.38 pf=0.92 pmpp=1.882 kva=2.0 irradiance=0.98 
~ temperature=25 %cutin=0.1 %cutout=0.1 effcurve=Myeff P-TCurve=MyPvsT Daily=PVIrrad_diaria TDaily=MyTemp 

New "PVsystem.GD.CE.000.844.853" phases=3 bus1=3807064938458919.1.2.3.4 conn=Wye kv=0.38 pf=0.92 pmpp=4.238 kva=5.0 irradiance=0.98 
~ temperature=25 %cutin=0.1 %cutout=0.1 effcurve=Myeff P-TCurve=MyPvsT Daily=PVIrrad_diaria TDaily=MyTemp 

New "PVsystem.GD.CE.001.010.783" phases=1 bus1=3828696638462936.1.4 conn=Wye kv=0.219 pf=0.92 pmpp=0.676 kva=1.0 irradiance=0.98 
~ temperature=25 %cutin=0.1 %cutout=0.1 effcurve=Myeff P-TCurve=MyPvsT Daily=PVIrrad_diaria TDaily=MyTemp 

New "PVsystem.GD.CE.000.698.218" phases=1 bus1=3822931638453481.2.4 conn=Wye kv=0.219 pf=0.92 pmpp=0.469 kva=1.0 irradiance=0.98 
~ temperature=25 %cutin=0.1 %cutout=0.1 effcurve=Myeff P-TCurve=MyPvsT Daily=PVIrrad_diaria TDaily=MyTemp 

New "PVsystem.GD.CE.000.761.810" phases=1 bus1=3834024938459851.1.4 conn=Wye kv=0.219 pf=0.92 pmpp=1.03 kva=2.0 irradiance=0.98 
~ temperature=25 %cutin=0.1 %cutout=0.1 effcurve=Myeff P-TCurve=MyPvsT Daily=PVIrrad_diaria TDaily=MyTemp 

New "PVsystem.GD.CE.000.542.520" phases=3 bus1=3808464938450831.1.2.3.4 conn=Wye kv=0.38 pf=0.92 pmpp=0.756 kva=1.0 irradiance=0.98 
~ temperature=25 %cutin=0.1 %cutout=0.1 effcurve=Myeff P-TCurve=MyPvsT Daily=PVIrrad_diaria TDaily=MyTemp 

New "PVsystem.GD.CE.001.980.163" phases=1 bus1=3830836638461149.1.4 conn=Wye kv=0.219 pf=0.92 pmpp=6.0 kva=6.0 irradiance=0.98 
~ temperature=25 %cutin=0.1 %cutout=0.1 effcurve=Myeff P-TCurve=MyPvsT Daily=PVIrrad_diaria TDaily=MyTemp 


New "PVsystem.GD.CE.000.116.099" phases=1 bus1=3831939938461313.1.4 conn=Wye kv=0.219 pf=0.92 pmpp=0.293 kva=1.0 irradiance=0.98 
~ temperature=25 %cutin=0.1 %cutout=0.1 effcurve=Myeff P-TCurve=MyPvsT Daily=PVIrrad_diaria TDaily=MyTemp 

New "PVsystem.GD.CE.001.397.182" phases=3 bus1=3824168938464634.1.2.3.4 conn=Wye kv=0.38 pf=0.92 pmpp=2.011 kva=3.0 irradiance=0.98 
~ temperature=25 %cutin=0.1 %cutout=0.1 effcurve=Myeff P-TCurve=MyPvsT Daily=PVIrrad_diaria TDaily=MyTemp 

New "PVsystem.GD.CE.000.289.598" phases=3 bus1=3793206638472520.1.2.3.4 conn=Wye kv=0.38 pf=0.92 pmpp=1.06 kva=2.0 irradiance=0.98 
~ temperature=25 %cutin=0.1 %cutout=0.1 effcurve=Myeff P-TCurve=MyPvsT Daily=PVIrrad_diaria TDaily=MyTemp 

New "PVsystem.GD.CE.000.938.612" phases=3 bus1=3831653338452626.1.2.3.4 conn=Wye kv=0.38 pf=0.92 pmpp=10.357 kva=11.0 irradiance=0.98 
~ temperature=25 %cutin=0.1 %cutout=0.1 effcurve=Myeff P-TCurve=MyPvsT Daily=PVIrrad_diaria TDaily=MyTemp 

New "PVsystem.GD.CE.000.774.209" phases=1 bus1=3820683338460336.1.4 conn=Wye kv=0.219 pf=0.92 pmpp=0.908 kva=1.0 irradiance=0.98 
~ temperature=25 %cutin=0.1 %cutout=0.1 effcurve=Myeff P-TCurve=MyPvsT Daily=PVIrrad_diaria TDaily=MyTemp 

New "PVsystem.GD.CE.001.639.983" phases=1 bus1=3816123338450088.2.4 conn=Wye kv=0.219 pf=0.92 pmpp=5.0 kva=5.0 irradiance=0.98 
~ temperature=25 %cutin=0.1 %cutout=0.1 effcurve=Myeff P-TCurve=MyPvsT Daily=PVIrrad_diaria TDaily=MyTemp 

New "PVsystem.GD.CE.000.703.414" phases=1 bus1=3811443138467098.1.4 conn=Wye kv=0.219 pf=0.92 pmpp=1.622 kva=2.0 irradiance=0.98 
~ temperature=25 %cutin=0.1 %cutout=0.1 effcurve=Myeff P-TCurve=MyPvsT Daily=PVIrrad_diaria TDaily=MyTemp 

New "PVsystem.GD.CE.001.585.557" phases=1 bus1=3828471638465746.1.4 conn=Wye kv=0.219 pf=0.92 pmpp=3.0 kva=3.0 irradiance=0.98 
~ temperature=25 %cutin=0.1 %cutout=0.1 effcurve=Myeff P-TCurve=MyPvsT Daily=PVIrrad_diaria TDaily=MyTemp 

New "PVsystem.GD.CE.000.894.164" phases=1 bus1=3826050238433058.1.4 conn=Wye kv=0.219 pf=0.92 pmpp=0.616 kva=1.0 irradiance=0.98 
~ temperature=25 %cutin=0.1 %cutout=0.1 effcurve=Myeff P-TCurve=MyPvsT Daily=PVIrrad_diaria TDaily=MyTemp 

New "PVsystem.GD.CE.000.270.473" phases=3 bus1=3826050238433058.1.2.3.4 conn=Wye kv=0.38 pf=0.92 pmpp=0.999 kva=1.0 irradiance=0.98 
~ temperature=25 %cutin=0.1 %cutout=0.1 effcurve=Myeff P-TCurve=MyPvsT Daily=PVIrrad_diaria TDaily=MyTemp 

New "PVsystem.GD.CE.000.832.681" phases=1 bus1=3822659938432986.2.4 conn=Wye kv=0.219 pf=0.92 pmpp=0.51 kva=1.0 irradiance=0.98 
~ temperature=25 %cutin=0.1 %cutout=0.1 effcurve=Myeff P-TCurve=MyPvsT Daily=PVIrrad_diaria TDaily=MyTemp 

New "PVsystem.GD.CE.000.640.636" phases=1 bus1=3791858138470364.1.4 conn=Wye kv=0.219 pf=0.92 pmpp=0.579 kva=1.0 irradiance=0.98 
~ temperature=25 %cutin=0.1 %cutout=0.1 effcurve=Myeff P-TCurve=MyPvsT Daily=PVIrrad_diaria TDaily=MyTemp 

New "PVsystem.GD.CE.002.102.890" phases=1 bus1=3825228338458220.1.4 conn=Wye kv=0.219 pf=0.92 pmpp=3.0 kva=3.0 irradiance=0.98 
~ temperature=25 %cutin=0.1 %cutout=0.1 effcurve=Myeff P-TCurve=MyPvsT Daily=PVIrrad_diaria TDaily=MyTemp 

New "PVsystem.GD.CE.000.534.852" phases=3 bus1=3823909938432538.1.2.3.4 conn=Wye kv=0.38 pf=0.92 pmpp=2.351 kva=3.0 irradiance=0.98 
~ temperature=25 %cutin=0.1 %cutout=0.1 effcurve=Myeff P-TCurve=MyPvsT Daily=PVIrrad_diaria TDaily=MyTemp 

New "PVsystem.GD.CE.002.061.167" phases=1 bus1=3806370038471866.2.4 conn=Wye kv=0.219 pf=0.92 pmpp=6.0 kva=6.0 irradiance=0.98 
~ temperature=25 %cutin=0.1 %cutout=0.1 effcurve=Myeff P-TCurve=MyPvsT Daily=PVIrrad_diaria TDaily=MyTemp 

New "PVsystem.GD.CE.000.879.031" phases=1 bus1=3831539938452933.1.4 conn=Wye kv=0.219 pf=0.92 pmpp=0.736 kva=1.0 irradiance=0.98 
~ temperature=25 %cutin=0.1 %cutout=0.1 effcurve=Myeff P-TCurve=MyPvsT Daily=PVIrrad_diaria TDaily=MyTemp 

New "PVsystem.GD.CE.001.950.024" phases=3 bus1=3806356838472012.1.2.3.4 conn=Wye kv=0.38 pf=0.92 pmpp=6.0 kva=6.0 irradiance=0.98 
~ temperature=25 %cutin=0.1 %cutout=0.1 effcurve=Myeff P-TCurve=MyPvsT Daily=PVIrrad_diaria TDaily=MyTemp 

New "PVsystem.GD.CE.000.702.498" phases=1 bus1=3822328338433556.1.4 conn=Wye kv=0.219 pf=0.92 pmpp=0.963 kva=1.0 irradiance=0.98 
~ temperature=25 %cutin=0.1 %cutout=0.1 effcurve=Myeff P-TCurve=MyPvsT Daily=PVIrrad_diaria TDaily=MyTemp 

New "PVsystem.GD.CE.001.276.082" phases=3 bus1=3793854338472073.1.2.3.4 conn=Wye kv=0.38 pf=0.92 pmpp=0.633 kva=1.0 irradiance=0.98 
~ temperature=25 %cutin=0.1 %cutout=0.1 effcurve=Myeff P-TCurve=MyPvsT Daily=PVIrrad_diaria TDaily=MyTemp 

New "PVsystem.GD.CE.000.368.284" phases=3 bus1=3793619738472518.1.2.3.4 conn=Wye kv=0.38 pf=0.92 pmpp=3.633 kva=4.0 irradiance=0.98 
~ temperature=25 %cutin=0.1 %cutout=0.1 effcurve=Myeff P-TCurve=MyPvsT Daily=PVIrrad_diaria TDaily=MyTemp 

New "PVsystem.GD.CE.000.340.960" phases=1 bus1=3824766638458923.1.4 conn=Wye kv=0.219 pf=0.92 pmpp=0.389 kva=1.0 irradiance=0.98 
~ temperature=25 %cutin=0.1 %cutout=0.1 effcurve=Myeff P-TCurve=MyPvsT Daily=PVIrrad_diaria TDaily=MyTemp 

New "PVsystem.GD.CE.000.180.641" phases=1 bus1=3805363338471408.1.4 conn=Wye kv=0.219 pf=0.92 pmpp=1.25 kva=2.0 irradiance=0.98 
~ temperature=25 %cutin=0.1 %cutout=0.1 effcurve=Myeff P-TCurve=MyPvsT Daily=PVIrrad_diaria TDaily=MyTemp 

New "PVsystem.GD.CE.001.218.640" phases=1 bus1=3820103338453596.2.4 conn=Wye kv=0.219 pf=0.92 pmpp=0.78 kva=1.0 irradiance=0.98 
~ temperature=25 %cutin=0.1 %cutout=0.1 effcurve=Myeff P-TCurve=MyPvsT Daily=PVIrrad_diaria TDaily=MyTemp 

New "PVsystem.GD.CE.000.970.640" phases=1 bus1=3820408338453125.2.4 conn=Wye kv=0.219 pf=0.92 pmpp=0.615 kva=1.0 irradiance=0.98 
~ temperature=25 %cutin=0.1 %cutout=0.1 effcurve=Myeff P-TCurve=MyPvsT Daily=PVIrrad_diaria TDaily=MyTemp 

New "PVsystem.GD.CE.000.547.927" phases=3 bus1=3792041438471622.1.2.3.4 conn=Wye kv=0.38 pf=0.92 pmpp=0.795 kva=1.0 irradiance=0.98 
~ temperature=25 %cutin=0.1 %cutout=0.1 effcurve=Myeff P-TCurve=MyPvsT Daily=PVIrrad_diaria TDaily=MyTemp 

New "PVsystem.GD.CE.000.261.187" phases=1 bus1=3819756638450368.2.4 conn=Wye kv=0.219 pf=0.92 pmpp=0.52 kva=1.0 irradiance=0.98 
~ temperature=25 %cutin=0.1 %cutout=0.1 effcurve=Myeff P-TCurve=MyPvsT Daily=PVIrrad_diaria TDaily=MyTemp 

New "PVsystem.GD.CE.001.775.280" phases=1 bus1=3820339938453611.1.4 conn=Wye kv=0.219 pf=0.92 pmpp=5.0 kva=5.0 irradiance=0.98 
~ temperature=25 %cutin=0.1 %cutout=0.1 effcurve=Myeff P-TCurve=MyPvsT Daily=PVIrrad_diaria TDaily=MyTemp 

New "PVsystem.GD.CE.000.180.757" phases=1 bus1=3808483838464460.2.4 conn=Wye kv=0.219 pf=0.92 pmpp=0.736 kva=1.0 irradiance=0.98 
~ temperature=25 %cutin=0.1 %cutout=0.1 effcurve=Myeff P-TCurve=MyPvsT Daily=PVIrrad_diaria TDaily=MyTemp 

New "PVsystem.GD.CE.001.620.327" phases=2 bus1=3805809938470525.1.2.4 conn=Wye kv=0.38 pf=0.92 pmpp=7.11 kva=8.0 irradiance=0.98 
~ temperature=25 %cutin=0.1 %cutout=0.1 effcurve=Myeff P-TCurve=MyPvsT Daily=PVIrrad_diaria TDaily=MyTemp 

New "PVsystem.GD.CE.001.357.457" phases=1 bus1=3805871638470623.3.4 conn=Wye kv=0.219 pf=0.92 pmpp=1.213 kva=2.0 irradiance=0.98 
~ temperature=25 %cutin=0.1 %cutout=0.1 effcurve=Myeff P-TCurve=MyPvsT Daily=PVIrrad_diaria TDaily=MyTemp 

New "PVsystem.GD.CE.001.460.707" phases=1 bus1=3805638338470458.3.4 conn=Wye kv=0.219 pf=0.92 pmpp=0.478 kva=1.0 irradiance=0.98 
~ temperature=25 %cutin=0.1 %cutout=0.1 effcurve=Myeff P-TCurve=MyPvsT Daily=PVIrrad_diaria TDaily=MyTemp 

New "PVsystem.GD.CE.001.067.533" phases=1 bus1=3808598338465468.2.4 conn=Wye kv=0.219 pf=0.92 pmpp=0.771 kva=1.0 irradiance=0.98 
~ temperature=25 %cutin=0.1 %cutout=0.1 effcurve=Myeff P-TCurve=MyPvsT Daily=PVIrrad_diaria TDaily=MyTemp 

New "PVsystem.GD.CE.000.041.098" phases=1 bus1=3809003338472258.3.4 conn=Wye kv=0.219 pf=0.92 pmpp=2.654 kva=3.0 irradiance=0.98 
~ temperature=25 %cutin=0.1 %cutout=0.1 effcurve=Myeff P-TCurve=MyPvsT Daily=PVIrrad_diaria TDaily=MyTemp 

New "PVsystem.GD.CE.000.795.224" phases=1 bus1=3809201638465866.2.4 conn=Wye kv=0.219 pf=0.92 pmpp=0.356 kva=1.0 irradiance=0.98 
~ temperature=25 %cutin=0.1 %cutout=0.1 effcurve=Myeff P-TCurve=MyPvsT Daily=PVIrrad_diaria TDaily=MyTemp 

New "PVsystem.GD.CE.000.341.066" phases=1 bus1=3820081638450481.3.4 conn=Wye kv=0.219 pf=0.92 pmpp=0.377 kva=1.0 irradiance=0.98 
~ temperature=25 %cutin=0.1 %cutout=0.1 effcurve=Myeff P-TCurve=MyPvsT Daily=PVIrrad_diaria TDaily=MyTemp 

New "PVsystem.GD.CE.001.113.206" phases=1 bus1=3805906638471328.2.4 conn=Wye kv=0.219 pf=0.92 pmpp=1.042 kva=2.0 irradiance=0.98 
~ temperature=25 %cutin=0.1 %cutout=0.1 effcurve=Myeff P-TCurve=MyPvsT Daily=PVIrrad_diaria TDaily=MyTemp 

New "PVsystem.GD.CE.000.498.393" phases=3 bus1=3823898738432643.1.2.3.4 conn=Wye kv=0.38 pf=0.92 pmpp=0.389 kva=1.0 irradiance=0.98 
~ temperature=25 %cutin=0.1 %cutout=0.1 effcurve=Myeff P-TCurve=MyPvsT Daily=PVIrrad_diaria TDaily=MyTemp 

New "PVsystem.GD.CE.000.004.280" phases=3 bus1=3823945038426469.1.2.3.4 conn=Wye kv=0.38 pf=0.92 pmpp=1.35 kva=2.0 irradiance=0.98 
~ temperature=25 %cutin=0.1 %cutout=0.1 effcurve=Myeff P-TCurve=MyPvsT Daily=PVIrrad_diaria TDaily=MyTemp 

New "PVsystem.GD.CE.000.616.012" phases=3 bus1=3825148338426589.1.2.3.4 conn=Wye kv=0.38 pf=0.92 pmpp=2.758 kva=3.0 irradiance=0.98 
~ temperature=25 %cutin=0.1 %cutout=0.1 effcurve=Myeff P-TCurve=MyPvsT Daily=PVIrrad_diaria TDaily=MyTemp 

New "PVsystem.GD.CE.001.568.545" phases=3 bus1=3832149938425291.1.2.3.4 conn=Wye kv=0.38 pf=0.92 pmpp=3.59 kva=4.0 irradiance=0.98 
~ temperature=25 %cutin=0.1 %cutout=0.1 effcurve=Myeff P-TCurve=MyPvsT Daily=PVIrrad_diaria TDaily=MyTemp 

New "PVsystem.GD.CE.000.607.461" phases=3 bus1=3831330038460520.1.2.3.4 conn=Wye kv=0.38 pf=0.92 pmpp=1.38 kva=2.0 irradiance=0.98 
~ temperature=25 %cutin=0.1 %cutout=0.1 effcurve=Myeff P-TCurve=MyPvsT Daily=PVIrrad_diaria TDaily=MyTemp 

New "PVsystem.GD.CE.000.676.046" phases=3 bus1=3828413238425274.1.2.3.4 conn=Wye kv=0.38 pf=0.92 pmpp=1.351 kva=2.0 irradiance=0.98 
~ temperature=25 %cutin=0.1 %cutout=0.1 effcurve=Myeff P-TCurve=MyPvsT Daily=PVIrrad_diaria TDaily=MyTemp 

New "PVsystem.GD.CE.001.787.599" phases=3 bus1=3831526638426540.1.2.3.4 conn=Wye kv=0.38 pf=0.92 pmpp=3.59 kva=4.0 irradiance=0.98 
~ temperature=25 %cutin=0.1 %cutout=0.1 effcurve=Myeff P-TCurve=MyPvsT Daily=PVIrrad_diaria TDaily=MyTemp 

New "PVsystem.GD.CE.002.061.203" phases=1 bus1=3809489938468468.1.4 conn=Wye kv=0.219 pf=0.92 pmpp=3.0 kva=3.0 irradiance=0.98 
~ temperature=25 %cutin=0.1 %cutout=0.1 effcurve=Myeff P-TCurve=MyPvsT Daily=PVIrrad_diaria TDaily=MyTemp 


New "PVsystem.GD.CE.001.609.359" phases=3 bus1=3828413238425274.1.2.3.4 conn=Wye kv=0.38 pf=0.92 pmpp=15.0 kva=15.0 irradiance=0.98 
~ temperature=25 %cutin=0.1 %cutout=0.1 effcurve=Myeff P-TCurve=MyPvsT Daily=PVIrrad_diaria TDaily=MyTemp 

New "PVsystem.GD.CE.000.940.094" phases=1 bus1=3820816638452099.2.4 conn=Wye kv=0.219 pf=0.92 pmpp=1.132 kva=2.0 irradiance=0.98 
~ temperature=25 %cutin=0.1 %cutout=0.1 effcurve=Myeff P-TCurve=MyPvsT Daily=PVIrrad_diaria TDaily=MyTemp 

New "PVsystem.GD.CE.000.468.976" phases=1 bus1=3809733338468574.1.4 conn=Wye kv=0.219 pf=0.92 pmpp=0.989 kva=1.0 irradiance=0.98 
~ temperature=25 %cutin=0.1 %cutout=0.1 effcurve=Myeff P-TCurve=MyPvsT Daily=PVIrrad_diaria TDaily=MyTemp 

New "PVsystem.GD.CE.001.636.260" phases=1 bus1=3794027938472474.1.4 conn=Wye kv=0.219 pf=0.92 pmpp=8.0 kva=8.0 irradiance=0.98 
~ temperature=25 %cutin=0.1 %cutout=0.1 effcurve=Myeff P-TCurve=MyPvsT Daily=PVIrrad_diaria TDaily=MyTemp 

New "PVsystem.GD.CE.000.004.492" phases=1 bus1=3809939938468990.1.4 conn=Wye kv=0.219 pf=0.92 pmpp=1.097 kva=2.0 irradiance=0.98 
~ temperature=25 %cutin=0.1 %cutout=0.1 effcurve=Myeff P-TCurve=MyPvsT Daily=PVIrrad_diaria TDaily=MyTemp 

New "PVsystem.GD.CE.001.703.566" phases=3 bus1=3807036838451901.1.2.3.4 conn=Wye kv=0.38 pf=0.92 pmpp=5.0 kva=5.0 irradiance=0.98 
~ temperature=25 %cutin=0.1 %cutout=0.1 effcurve=Myeff P-TCurve=MyPvsT Daily=PVIrrad_diaria TDaily=MyTemp 

New "PVsystem.GD.CE.000.670.337" phases=1 bus1=3809834938468573.1.4 conn=Wye kv=0.219 pf=0.92 pmpp=0.773 kva=1.0 irradiance=0.98 
~ temperature=25 %cutin=0.1 %cutout=0.1 effcurve=Myeff P-TCurve=MyPvsT Daily=PVIrrad_diaria TDaily=MyTemp 

New "PVsystem.GD.CE.001.774.175" phases=3 bus1=3807804838452126.1.2.3.4 conn=Wye kv=0.38 pf=0.92 pmpp=5.0 kva=5.0 irradiance=0.98 
~ temperature=25 %cutin=0.1 %cutout=0.1 effcurve=Myeff P-TCurve=MyPvsT Daily=PVIrrad_diaria TDaily=MyTemp 

New "PVsystem.GD.CE.001.670.157" phases=3 bus1=3807515338452250.1.2.3.4 conn=Wye kv=0.38 pf=0.92 pmpp=3.0 kva=3.0 irradiance=0.98 
~ temperature=25 %cutin=0.1 %cutout=0.1 effcurve=Myeff P-TCurve=MyPvsT Daily=PVIrrad_diaria TDaily=MyTemp 

New "PVsystem.GD.CE.001.514.556" phases=3 bus1=3828413238425274.1.2.3.4 conn=Wye kv=0.38 pf=0.92 pmpp=2.236 kva=3.0 irradiance=0.98 
~ temperature=25 %cutin=0.1 %cutout=0.1 effcurve=Myeff P-TCurve=MyPvsT Daily=PVIrrad_diaria TDaily=MyTemp 

New "PVsystem.GD.CE.001.801.719" phases=1 bus1=3818076638451419.2.4 conn=Wye kv=0.219 pf=0.92 pmpp=5.0 kva=5.0 irradiance=0.98 
~ temperature=25 %cutin=0.1 %cutout=0.1 effcurve=Myeff P-TCurve=MyPvsT Daily=PVIrrad_diaria TDaily=MyTemp 

New "PVsystem.GD.CE.000.766.664" phases=1 bus1=3805431638471383.3.4 conn=Wye kv=0.219 pf=0.92 pmpp=3.041 kva=4.0 irradiance=0.98 
~ temperature=25 %cutin=0.1 %cutout=0.1 effcurve=Myeff P-TCurve=MyPvsT Daily=PVIrrad_diaria TDaily=MyTemp 

New "PVsystem.GD.CE.001.724.249" phases=3 bus1=3805867538449983.1.2.3.4 conn=Wye kv=0.38 pf=0.92 pmpp=6.0 kva=6.0 irradiance=0.98 
~ temperature=25 %cutin=0.1 %cutout=0.1 effcurve=Myeff P-TCurve=MyPvsT Daily=PVIrrad_diaria TDaily=MyTemp 

New "PVsystem.GD.CE.000.015.125" phases=3 bus1=3828413238425274.1.2.3.4 conn=Wye kv=0.38 pf=0.92 pmpp=1.999 kva=2.0 irradiance=0.98 
~ temperature=25 %cutin=0.1 %cutout=0.1 effcurve=Myeff P-TCurve=MyPvsT Daily=PVIrrad_diaria TDaily=MyTemp 

New "PVsystem.GD.CE.000.418.259" phases=1 bus1=3811414938446548.1.4 conn=Wye kv=0.219 pf=0.92 pmpp=1.091 kva=2.0 irradiance=0.98 
~ temperature=25 %cutin=0.1 %cutout=0.1 effcurve=Myeff P-TCurve=MyPvsT Daily=PVIrrad_diaria TDaily=MyTemp 

New "PVsystem.GD.CE.000.672.104" phases=3 bus1=3809568338468558.1.2.3.4 conn=Wye kv=0.38 pf=0.92 pmpp=0.422 kva=1.0 irradiance=0.98 
~ temperature=25 %cutin=0.1 %cutout=0.1 effcurve=Myeff P-TCurve=MyPvsT Daily=PVIrrad_diaria TDaily=MyTemp 

New "PVsystem.GD.CE.001.950.569" phases=1 bus1=3822931638453481.2.4 conn=Wye kv=0.219 pf=0.92 pmpp=7.3 kva=8.0 irradiance=0.98 
~ temperature=25 %cutin=0.1 %cutout=0.1 effcurve=Myeff P-TCurve=MyPvsT Daily=PVIrrad_diaria TDaily=MyTemp 

New "PVsystem.GD.CE.000.395.360" phases=3 bus1=3828283338426578.1.2.3.4 conn=Wye kv=0.38 pf=0.92 pmpp=1.871 kva=2.0 irradiance=0.98 
~ temperature=25 %cutin=0.1 %cutout=0.1 effcurve=Myeff P-TCurve=MyPvsT Daily=PVIrrad_diaria TDaily=MyTemp 

New "PVsystem.GD.CE.000.005.961" phases=3 bus1=3828245038425628.1.2.3.4 conn=Wye kv=0.38 pf=0.92 pmpp=1.598 kva=2.0 irradiance=0.98 
~ temperature=25 %cutin=0.1 %cutout=0.1 effcurve=Myeff P-TCurve=MyPvsT Daily=PVIrrad_diaria TDaily=MyTemp 

New "PVsystem.GD.CE.000.179.697" phases=3 bus1=3828767438427201.1.2.3.4 conn=Wye kv=0.38 pf=0.92 pmpp=1.541 kva=2.0 irradiance=0.98 
~ temperature=25 %cutin=0.1 %cutout=0.1 effcurve=Myeff P-TCurve=MyPvsT Daily=PVIrrad_diaria TDaily=MyTemp 

New "PVsystem.GD.CE.001.937.500" phases=1 bus1=3816002538454498.1.4 conn=Wye kv=0.219 pf=0.92 pmpp=4.0 kva=4.0 irradiance=0.98 
~ temperature=25 %cutin=0.1 %cutout=0.1 effcurve=Myeff P-TCurve=MyPvsT Daily=PVIrrad_diaria TDaily=MyTemp 

New "PVsystem.GD.CE.000.853.980" phases=3 bus1=3818939038434989.1.2.3.4 conn=Wye kv=0.38 pf=0.92 pmpp=0.794 kva=1.0 irradiance=0.98 
~ temperature=25 %cutin=0.1 %cutout=0.1 effcurve=Myeff P-TCurve=MyPvsT Daily=PVIrrad_diaria TDaily=MyTemp 

New "PVsystem.GD.CE.000.470.659" phases=1 bus1=3820192738457098.1.4 conn=Wye kv=0.219 pf=0.92 pmpp=0.519 kva=1.0 irradiance=0.98 
~ temperature=25 %cutin=0.1 %cutout=0.1 effcurve=Myeff P-TCurve=MyPvsT Daily=PVIrrad_diaria TDaily=MyTemp 

New "PVsystem.GD.CE.000.168.297" phases=1 bus1=3794645438471830.1.4 conn=Wye kv=0.219 pf=0.92 pmpp=1.108 kva=2.0 irradiance=0.98 
~ temperature=25 %cutin=0.1 %cutout=0.1 effcurve=Myeff P-TCurve=MyPvsT Daily=PVIrrad_diaria TDaily=MyTemp 

New "PVsystem.GD.CE.001.836.597" phases=1 bus1=3811169938451808.1.4 conn=Wye kv=0.219 pf=0.92 pmpp=15.0 kva=15.0 irradiance=0.98 
~ temperature=25 %cutin=0.1 %cutout=0.1 effcurve=Myeff P-TCurve=MyPvsT Daily=PVIrrad_diaria TDaily=MyTemp 


New "PVsystem.GD.CE.001.010.163" phases=1 bus1=3824214638423718.1.4 conn=Wye kv=0.219 pf=0.92 pmpp=0.974 kva=1.0 irradiance=0.98 
~ temperature=25 %cutin=0.1 %cutout=0.1 effcurve=Myeff P-TCurve=MyPvsT Daily=PVIrrad_diaria TDaily=MyTemp 

New "PVsystem.GD.CE.000.015.122" phases=3 bus1=3823188038427102.1.2.3.4 conn=Wye kv=0.38 pf=0.92 pmpp=1.556 kva=2.0 irradiance=0.98 
~ temperature=25 %cutin=0.1 %cutout=0.1 effcurve=Myeff P-TCurve=MyPvsT Daily=PVIrrad_diaria TDaily=MyTemp 

New "PVsystem.GD.CE.000.712.768" phases=3 bus1=3824396138424457.1.2.3.4 conn=Wye kv=0.38 pf=0.92 pmpp=0.528 kva=1.0 irradiance=0.98 
~ temperature=25 %cutin=0.1 %cutout=0.1 effcurve=Myeff P-TCurve=MyPvsT Daily=PVIrrad_diaria TDaily=MyTemp 

New "PVsystem.GD.CE.000.803.390" phases=1 bus1=3808396938469486.2.4 conn=Wye kv=0.219 pf=0.92 pmpp=0.751 kva=1.0 irradiance=0.98 
~ temperature=25 %cutin=0.1 %cutout=0.1 effcurve=Myeff P-TCurve=MyPvsT Daily=PVIrrad_diaria TDaily=MyTemp 

New "PVsystem.GD.CE.001.967.017" phases=3 bus1=3824405138424466.1.2.3.4 conn=Wye kv=0.38 pf=0.92 pmpp=5.0 kva=5.0 irradiance=0.98 
~ temperature=25 %cutin=0.1 %cutout=0.1 effcurve=Myeff P-TCurve=MyPvsT Daily=PVIrrad_diaria TDaily=MyTemp 

New "PVsystem.GD.CE.001.276.426" phases=3 bus1=3811345038447330.1.2.3.4 conn=Wye kv=0.38 pf=0.92 pmpp=0.371 kva=1.0 irradiance=0.98 
~ temperature=25 %cutin=0.1 %cutout=0.1 effcurve=Myeff P-TCurve=MyPvsT Daily=PVIrrad_diaria TDaily=MyTemp 

New "PVsystem.GD.CE.001.970.834" phases=1 bus1=3824852638458599.1.4 conn=Wye kv=0.219 pf=0.92 pmpp=2.0 kva=2.0 irradiance=0.98 
~ temperature=25 %cutin=0.1 %cutout=0.1 effcurve=Myeff P-TCurve=MyPvsT Daily=PVIrrad_diaria TDaily=MyTemp 

New "PVsystem.GD.CE.001.063.560" phases=1 bus1=3818386638450878.1.4 conn=Wye kv=0.219 pf=0.92 pmpp=0.912 kva=1.0 irradiance=0.98 
~ temperature=25 %cutin=0.1 %cutout=0.1 effcurve=Myeff P-TCurve=MyPvsT Daily=PVIrrad_diaria TDaily=MyTemp 

New "PVsystem.GD.CE.000.610.431" phases=3 bus1=3824268138433215.1.2.3.4 conn=Wye kv=0.38 pf=0.92 pmpp=3.098 kva=4.0 irradiance=0.98 
~ temperature=25 %cutin=0.1 %cutout=0.1 effcurve=Myeff P-TCurve=MyPvsT Daily=PVIrrad_diaria TDaily=MyTemp 

New "PVsystem.GD.CE.000.149.827" phases=3 bus1=3820590938423327.1.2.3.4 conn=Wye kv=0.38 pf=0.92 pmpp=4.619 kva=5.0 irradiance=0.98 
~ temperature=25 %cutin=0.1 %cutout=0.1 effcurve=Myeff P-TCurve=MyPvsT Daily=PVIrrad_diaria TDaily=MyTemp 

New "PVsystem.GD.CE.002.094.037" phases=3 bus1=3831215938425275.1.2.3.4 conn=Wye kv=0.38 pf=0.92 pmpp=5.0 kva=5.0 irradiance=0.98 
~ temperature=25 %cutin=0.1 %cutout=0.1 effcurve=Myeff P-TCurve=MyPvsT Daily=PVIrrad_diaria TDaily=MyTemp 

New "PVsystem.GD.CE.000.589.430" phases=1 bus1=3810665538469722.2.4 conn=Wye kv=0.219 pf=0.92 pmpp=1.049 kva=2.0 irradiance=0.98 
~ temperature=25 %cutin=0.1 %cutout=0.1 effcurve=Myeff P-TCurve=MyPvsT Daily=PVIrrad_diaria TDaily=MyTemp 

New "PVsystem.GD.CE.000.015.126" phases=3 bus1=3823962938423862.1.2.3.4 conn=Wye kv=0.38 pf=0.92 pmpp=1.799 kva=2.0 irradiance=0.98 
~ temperature=25 %cutin=0.1 %cutout=0.1 effcurve=Myeff P-TCurve=MyPvsT Daily=PVIrrad_diaria TDaily=MyTemp 

New "PVsystem.GD.CE.000.697.219" phases=1 bus1=3816785938432152.1.4 conn=Wye kv=0.219 pf=0.92 pmpp=0.43 kva=1.0 irradiance=0.98 
~ temperature=25 %cutin=0.1 %cutout=0.1 effcurve=Myeff P-TCurve=MyPvsT Daily=PVIrrad_diaria TDaily=MyTemp 



New "PVsystem.GD.CE.000.547.908" phases=3 bus1=3807631338449514.1.2.3.4 conn=Wye kv=0.38 pf=0.92 pmpp=0.589 kva=1.0 irradiance=0.98 
~ temperature=25 %cutin=0.1 %cutout=0.1 effcurve=Myeff P-TCurve=MyPvsT Daily=PVIrrad_diaria TDaily=MyTemp 

New "PVsystem.GD.CE.001.497.122" phases=3 bus1=3805867938450686.1.2.3.4 conn=Wye kv=0.38 pf=0.92 pmpp=0.642 kva=1.0 irradiance=0.98 
~ temperature=25 %cutin=0.1 %cutout=0.1 effcurve=Myeff P-TCurve=MyPvsT Daily=PVIrrad_diaria TDaily=MyTemp 

New "PVsystem.GD.CE.000.418.297" phases=3 bus1=3805849838450668.1.2.3.4 conn=Wye kv=0.38 pf=0.92 pmpp=0.899 kva=1.0 irradiance=0.98 
~ temperature=25 %cutin=0.1 %cutout=0.1 effcurve=Myeff P-TCurve=MyPvsT Daily=PVIrrad_diaria TDaily=MyTemp 

New "PVsystem.GD.CE.000.607.108" phases=3 bus1=3805840838450659.1.2.3.4 conn=Wye kv=0.38 pf=0.92 pmpp=0.78 kva=1.0 irradiance=0.98 
~ temperature=25 %cutin=0.1 %cutout=0.1 effcurve=Myeff P-TCurve=MyPvsT Daily=PVIrrad_diaria TDaily=MyTemp 

New "PVsystem.GD.CE.000.832.203" phases=3 bus1=3805822738450641.1.2.3.4 conn=Wye kv=0.38 pf=0.92 pmpp=0.833 kva=1.0 irradiance=0.98 
~ temperature=25 %cutin=0.1 %cutout=0.1 effcurve=Myeff P-TCurve=MyPvsT Daily=PVIrrad_diaria TDaily=MyTemp 

New "PVsystem.GD.CE.001.834.240" phases=3 bus1=3805813638450632.1.2.3.4 conn=Wye kv=0.38 pf=0.92 pmpp=12.0 kva=12.0 irradiance=0.98 
~ temperature=25 %cutin=0.1 %cutout=0.1 effcurve=Myeff P-TCurve=MyPvsT Daily=PVIrrad_diaria TDaily=MyTemp 

New "PVsystem.GD.CE.001.179.991" phases=1 bus1=3833659038460524.1.4 conn=Wye kv=0.219 pf=0.92 pmpp=0.894 kva=1.0 irradiance=0.98 
~ temperature=25 %cutin=0.1 %cutout=0.1 effcurve=Myeff P-TCurve=MyPvsT Daily=PVIrrad_diaria TDaily=MyTemp 

New "PVsystem.GD.CE.001.569.238" phases=3 bus1=3821486038422349.1.2.3.4 conn=Wye kv=0.38 pf=0.92 pmpp=6.98 kva=7.0 irradiance=0.98 
~ temperature=25 %cutin=0.1 %cutout=0.1 effcurve=Myeff P-TCurve=MyPvsT Daily=PVIrrad_diaria TDaily=MyTemp 

New "PVsystem.GD.CE.001.131.765" phases=1 bus1=3793508038471558.1.4 conn=Wye kv=0.219 pf=0.92 pmpp=0.607 kva=1.0 irradiance=0.98 
~ temperature=25 %cutin=0.1 %cutout=0.1 effcurve=Myeff P-TCurve=MyPvsT Daily=PVIrrad_diaria TDaily=MyTemp 

New "PVsystem.GD.CE.000.009.689" phases=3 bus1=3821647038423919.1.2.3.4 conn=Wye kv=0.38 pf=0.92 pmpp=1.219 kva=2.0 irradiance=0.98 
~ temperature=25 %cutin=0.1 %cutout=0.1 effcurve=Myeff P-TCurve=MyPvsT Daily=PVIrrad_diaria TDaily=MyTemp 

New "PVsystem.GD.CE.000.004.724" phases=3 bus1=3829946938425359.1.2.3.4 conn=Wye kv=0.38 pf=0.92 pmpp=1.692 kva=2.0 irradiance=0.98 
~ temperature=25 %cutin=0.1 %cutout=0.1 effcurve=Myeff P-TCurve=MyPvsT Daily=PVIrrad_diaria TDaily=MyTemp 

New "PVsystem.GD.CE.000.010.905" phases=3 bus1=3823800538426655.1.2.3.4 conn=Wye kv=0.38 pf=0.92 pmpp=1.87 kva=2.0 irradiance=0.98 
~ temperature=25 %cutin=0.1 %cutout=0.1 effcurve=Myeff P-TCurve=MyPvsT Daily=PVIrrad_diaria TDaily=MyTemp 

New "PVsystem.GD.CE.000.613.770" phases=3 bus1=3805786538450605.1.2.3.4 conn=Wye kv=0.38 pf=0.92 pmpp=1.664 kva=2.0 irradiance=0.98 
~ temperature=25 %cutin=0.1 %cutout=0.1 effcurve=Myeff P-TCurve=MyPvsT Daily=PVIrrad_diaria TDaily=MyTemp 

New "PVsystem.GD.CE.000.468.961" phases=3 bus1=3805777438450596.1.2.3.4 conn=Wye kv=0.38 pf=0.92 pmpp=0.939 kva=1.0 irradiance=0.98 
~ temperature=25 %cutin=0.1 %cutout=0.1 effcurve=Myeff P-TCurve=MyPvsT Daily=PVIrrad_diaria TDaily=MyTemp 

New "PVsystem.GD.CE.001.276.512" phases=3 bus1=3830193938424774.1.2.3.4 conn=Wye kv=0.38 pf=0.92 pmpp=2.263 kva=3.0 irradiance=0.98 