New "Line.RBT_CL1202868" phases=4 bus1="3806086338461332.1.2.3.4" bus2="3805983538461682.1.2.3.4" linecode="6796775_4" length=0.00600 units=km
New "Line.RBT_CL1325870" phases=2 bus1="3805726438461364.2.4" bus2="3805684938461673.2.4" linecode="6796775_1_2" length=0.00600 units=km
New "Line.RBT_CL1661547" phases=2 bus1="3824725138424343.1.4" bus2="3824405138424457.1.4" linecode="6796775_1_2" length=0.03000 units=km
New "Line.RBT_CL2735361" phases=4 bus1="3828413238425274_SP7.1.2.3.4" bus2="3828537638425236.1.2.3.4" linecode="6796775_4" length=0.03000 units=km
New "Line.RBT_CL2962317" phases=4 bus1="3828413238425274_SP8.1.2.3.4" bus2="3828537638425236.1.2.3.4" linecode="6796775_4" length=0.03000 units=km
New "Line.RBT_CL3085274" phases=4 bus1="3828413238425274_SP3.1.2.3.4" bus2="3828537638425236.1.2.3.4" linecode="6771584_4" length=0.03000 units=km
New "Line.RBT_CL3156806" phases=4 bus1="3828413238425274_SP13.1.2.3.4" bus2="3828537638425236.1.2.3.4" linecode="6796775_4" length=0.02450 units=km
New "Line.RBT_CL3193465" phases=4 bus1="3821490438425236.1.2.3.4" bus2="3821573938424999.1.2.3.4" linecode="6796775_4" length=0.02240 units=km
New "Line.RBT_CL3369402" phases=2 bus1="3813261538448784.2.4" bus2="3813212638449015.2.4" linecode="6771582_2" length=0.00600 units=km
New "Line.RBT_CL3561922" phases=4 bus1="3827433038424839.1.2.3.4" bus2="3827426938424824.1.2.3.4" linecode="6796775_4" length=0.03000 units=km
New "Line.RBT_CL3931883" phases=4 bus1="3824405138424466.1.2.3.4" bus2="3824725138424343.1.2.3.4" linecode="6796775_4" length=0.03000 units=km
New "Line.RBT_CL3933295" phases=4 bus1="3823182438427116.1.2.3.4" bus2="3823185638427151.1.2.3.4" linecode="6796775_4" length=0.03000 units=km
New "Line.RBT_CL4622945" phases=4 bus1="3823791338424288.1.2.3.4" bus2="3823780938424394.1.2.3.4" linecode="6796775_4" length=0.01530 units=km
New "Line.RBT_CL4934841" phases=4 bus1="3828413238425274_SP5.1.2.3.4" bus2="3828537638425236.1.2.3.4" linecode="6796775_4" length=0.02750 units=km
New "Line.RBT_CL5858762" phases=4 bus1="3828413238425274_SP6.1.2.3.4" bus2="3828537638425236.1.2.3.4" linecode="6796775_4" length=0.03000 units=km
New "Line.RBT_CL5981586" phases=4 bus1="3824405138424466_SP3.1.2.3.4" bus2="3824725138424343.1.2.3.4" linecode="6796775_4" length=0.02040 units=km
New "Line.RBT_CL6040243" phases=4 bus1="3824405138424466_SP1.1.2.3.4" bus2="3824725138424343.1.2.3.4" linecode="6796775_4" length=0.01530 units=km
New "Line.RBT_CL6051490" phases=4 bus1="3824405138424466_SP4.1.2.3.4" bus2="3824725138424343.1.2.3.4" linecode="6796775_4" length=0.00600 units=km
New "Line.RBT_CL6162601" phases=4 bus1="3828413238425274_SP12.1.2.3.4" bus2="3828537638425236.1.2.3.4" linecode="6796775_4" length=0.02240 units=km
New "Line.RBT_CL6354900" phases=4 bus1="3822234138425775.1.2.3.4" bus2="3821954238425530.1.2.3.4" linecode="6796775_4" length=0.00600 units=km
New "Line.RBT_CL6509046" phases=4 bus1="3824405138424466_SP5.1.2.3.4" bus2="3824725138424343.1.2.3.4" linecode="6771584_4" length=0.02450 units=km
New "Line.RBT_CL6734297" phases=4 bus1="3824405138424466_SP2.1.2.3.4" bus2="3824725138424343.1.2.3.4" linecode="6796775_4" length=0.00600 units=km
New "Line.RBT_CL6882369" phases=4 bus1="3824405138424466_SP8.1.2.3.4" bus2="3824725138424343.1.2.3.4" linecode="6796775_4" length=0.00600 units=km
New "Line.RBT_CL8039041" phases=4 bus1="3826046638426224.1.2.3.4" bus2="3826070838426212.1.2.3.4" linecode="6796775_4" length=0.01530 units=km
New "Line.RBT_CL8330356" phases=4 bus1="3806441338461314.1.2.3.4" bus2="3806562338461439.1.2.3.4" linecode="6796775_4" length=0.01530 units=km
New "Line.RBT_CL9201361" phases=2 bus1="3833747038462532.2.4" bus2="3833793138462629.2.4" linecode="6771582_2" length=0.00600 units=km
New "Line.RBT_CO0244338" phases=4 bus1="44271862TR.1.2.3.4" bus2="264944380.1.2.3.4" linecode="6796775_4" length=0.03000 units=km
New "Line.RBT_UC0755300" phases=4 bus1="3807534038461236.1.2.3.4" bus2="3807491638461076.1.2.3.4" linecode="6771584_4" length=0.00600 units=km
New "Line.RBT_UC0768623" phases=4 bus1="3813755538449336.1.2.3.4" bus2="3813739938449271.1.2.3.4" linecode="4544169_3_4" length=0.03000 units=km
New "Line.RBT_UC0768629" phases=4 bus1="3813765438449648.1.2.3.4" bus2="3813774938449711.1.2.3.4" linecode="4544169_3_4" length=0.03000 units=km
New "Line.RBT_UC0768705" phases=4 bus1="3813798538448627.1.2.3.4" bus2="3813751638448514.1.2.3.4" linecode="4544169_3_4" length=0.02140 units=km
New "Line.RBT_UC0768707" phases=2 bus1="3812742338448662.2.4" bus2="3812710038448678.2.4" linecode="4544169_2" length=0.00600 units=km
New "Line.RBT_UC0834246" phases=4 bus1="3807177238461281.1.2.3.4" bus2="3807126638461251.1.2.3.4" linecode="6796775_4" length=0.00600 units=km
New "Line.RBT_UC0870758" phases=4 bus1="3813798538448627.1.2.3.4" bus2="3813796638448691.1.2.3.4" linecode="6771584_4" length=0.00600 units=km
New "Line.RBT_UC0909218" phases=2 bus1="3812794738448323.2.4" bus2="3812618338448304.2.4" linecode="4544169_2" length=0.01530 units=km
New "Line.RBT_UC0948630" phases=4 bus1="3806441338461314.1.2.3.4" bus2="3806403338461276.1.2.3.4" linecode="6796775_4" length=0.00600 units=km
New "Line.RBT_UC0975866" phases=4 bus1="3806086338461332.1.2.3.4" bus2="3806019938461373.1.2.3.4" linecode="6796775_4" length=0.00600 units=km
New "Line.RBT_UC0998066" phases=2 bus1="3806804138461302.2.4" bus2="3806838338461338.2.4" linecode="6771582_2" length=0.03000 units=km
New "Line.RBT_UC1003733" phases=4 bus1="3806086338461332.1.2.3.4" bus2="3806048338461254.1.2.3.4" linecode="6796775_4" length=0.00600 units=km
New "Line.RBT_UC1014460" phases=4 bus1="3807534038461236.1.2.3.4" bus2="3807453838461078.1.2.3.4" linecode="6796775_4" length=0.00600 units=km
New "Line.RBT_UC1051488" phases=4 bus1="3812430438448594.1.2.3.4" bus2="3812516638448496.1.2.3.4" linecode="6796775_4" length=0.00600 units=km
New "Line.RBT_UC1108550" phases=4 bus1="3807534038461236.1.2.3.4" bus2="3807460438461077.1.2.3.4" linecode="6796775_4" length=0.00600 units=km
New "Line.RBT_UC1113884" phases=4 bus1="3805725638461351.1.2.3.4" bus2="3805886638461358.1.2.3.4" linecode="6771584_4" length=0.00600 units=km
New "Line.RBT_UC1175695" phases=2 bus1="3807534038461236.1.4" bus2="3807478338461176.1.4" linecode="6796774_2" length=0.00600 units=km
New "Line.RBT_UC1206278" phases=4 bus1="3806947338461080.1.2.3.4" bus2="3806949938461253.1.2.3.4" linecode="6771584_4" length=0.00600 units=km
New "Line.RBT_UC1239904" phases=4 bus1="3812430438448594.1.2.3.4" bus2="3812331638448624.1.2.3.4" linecode="6796775_4" length=0.00600 units=km
New "Line.RBT_UC1325869" phases=4 bus1="3806563638461095.1.2.3.4" bus2="3806711638461119.1.2.3.4" linecode="6796775_4" length=0.00600 units=km
New "Line.RBT_UC1359937" phases=4 bus1="3807202938461056.1.2.3.4" bus2="3807038338461061.1.2.3.4" linecode="6796775_4" length=0.00600 units=km
New "Line.RBT_UC1377534" phases=4 bus1="3833193538461638.1.2.3.4" bus2="3833186438461719.1.2.3.4" linecode="6796775_4" length=0.00600 units=km
New "Line.RBT_UC1410903" phases=4 bus1="3806441338461314.1.2.3.4" bus2="3806364938461358.1.2.3.4" linecode="6796775_4" length=0.00600 units=km
New "Line.RBT_UC1487974" phases=4 bus1="3813280438448015.1.2.3.4" bus2="3813066638448079.1.2.3.4" linecode="4544169_3_4" length=0.00600 units=km
New "Line.RBT_UC1534879" phases=4 bus1="3807534438461052.1.2.3.4" bus2="3807495038460855.1.2.3.4" linecode="4544169_3_4" length=0.00600 units=km
New "Line.RBT_UC1583281" phases=2 bus1="3812794738448323.2.4" bus2="3812838338448245.2.4" linecode="6796774_2" length=0.00600 units=km
New "Line.RBT_UC1583284" phases=4 bus1="3806086338461332.1.2.3.4" bus2="3806040438461248.1.2.3.4" linecode="6771584_4" length=0.00600 units=km
New "Line.RBT_UC1583285" phases=4 bus1="3806086338461332.1.2.3.4" bus2="3806070238461236.1.2.3.4" linecode="6796775_4" length=0.00600 units=km
New "Line.RBT_UC1633036" phases=4 bus1="3832494338460847.1.2.3.4" bus2="3832454938460763.1.2.3.4" linecode="6796775_4" length=0.00600 units=km
New "Line.RBT_UC1646142" phases=4 bus1="3807202938461056.1.2.3.4" bus2="3807027338461052.1.2.3.4" linecode="6771584_4" length=0.00600 units=km
New "Line.RBT_UC1822433" phases=4 bus1="3817505238452201.1.2.3.4" bus2="3817547738452136.1.2.3.4" linecode="6771584_4" length=0.00600 units=km
New "Line.RBT_UC1858790" phases=4 bus1="3806563638461095.1.2.3.4" bus2="3806596638461071.1.2.3.4" linecode="6771584_4" length=0.00600 units=km
New "Line.RBT_UC2197377" phases=4 bus1="3806804138461302.1.2.3.4" bus2="3806763338461326.1.2.3.4" linecode="6796775_4" length=0.01220 units=km
New "Line.RBT_UC2204803" phases=4 bus1="3833381338461950.1.2.3.4" bus2="3833301638462080.1.2.3.4" linecode="6796775_4" length=0.03000 units=km
New "Line.RBT_UC2318742" phases=4 bus1="3807534438461052.1.2.3.4" bus2="3807383538460801.1.2.3.4" linecode="4544169_3_4" length=0.03000 units=km
New "Line.RBT_UC2324396" phases=2 bus1="3813765438449648.2.4" bus2="3813714938449815.2.4" linecode="6771582_2" length=0.02650 units=km
New "Line.RBT_UC2332569" phases=4 bus1="3833381338461950.1.2.3.4" bus2="3833469938462294.1.2.3.4" linecode="6796775_4" length=0.02960 units=km
New "Line.RBT_UC2548139" phases=2 bus1="3818244638452299.1.4" bus2="3817779738452436.1.4" linecode="6771582_2" length=0.01120 units=km
New "Line.RBT_UC2599036" phases=2 bus1="3806441338461314.2.4" bus2="3806425038461253.2.4" linecode="6771582_2" length=0.03000 units=km
New "Line.RBT_UC2698093" phases=4 bus1="3833381338461950.1.2.3.4" bus2="3833401638462180.1.2.3.4" linecode="4544169_3_4" length=0.03000 units=km
New "Line.RBT_UC2712416" phases=2 bus1="3813779738448981.2.4" bus2="3813763338448933.2.4" linecode="6771582_2" length=0.00710 units=km
New "Line.RBT_UC2758715" phases=2 bus1="3813280438448015.2.4" bus2="3813239938447770.2.4" linecode="6771582_2" length=0.02450 units=km
New "Line.RBT_UC2760084" phases=2 bus1="3833381338461950.2.4" bus2="3833339938462136.2.4" linecode="6771582_2" length=0.03000 units=km
New "Line.RBT_UC2789810" phases=2 bus1="3833381338461950.2.4" bus2="3833226638461948.2.4" linecode="6771582_2" length=0.02550 units=km
New "Line.RBT_UC2809147" phases=4 bus1="3821910738426361.1.2.3.4" bus2="3822246638426545.1.2.3.4" linecode="6796775_4" length=0.03000 units=km
New "Line.RBT_UC2841939" phases=4 bus1="3813369138446941.1.2.3.4" bus2="3813273338447088.1.2.3.4" linecode="4544169_3_4" length=0.03000 units=km
New "Line.RBT_UC2852104" phases=2 bus1="3807534038461236.1.4" bus2="3807471638461169.1.4" linecode="6771582_2" length=0.01330 units=km
New "Line.RBT_UC2853751" phases=4 bus1="3828615338426772.1.2.3.4" bus2="3828608338426826.1.2.3.4" linecode="6796775_4" length=0.03000 units=km
New "Line.RBT_UC2874174" phases=4 bus1="3832197138426855.1.2.3.4" bus2="3832180038426498.1.2.3.4" linecode="6796775_4" length=0.03000 units=km
New "Line.RBT_UC2883523" phases=2 bus1="3826046638426224.2.4" bus2="3825950038426156.2.4" linecode="6771582_2" length=0.00610 units=km
New "Line.RBT_UC2883541" phases=2 bus1="3824823438422353.3.4" bus2="3824768338422380.3.4" linecode="6771582_2" length=0.00610 units=km
New "Line.RBT_UC2883544" phases=2 bus1="3826429238426657.2.4" bus2="3826786638426681.2.4" linecode="6771582_2" length=0.03000 units=km
New "Line.RBT_UC2886723" phases=2 bus1="3805886738461137.2.4" bus2="3805886638461133.2.4" linecode="6796774_2" length=0.01330 units=km
New "Line.RBT_UC2912342" phases=4 bus1="3831493538426274.1.2.3.4" bus2="3831526638426540.1.2.3.4" linecode="6771584_4" length=0.03000 units=km
New "Line.RBT_UC2957593" phases=4 bus1="3824801938426364.1.2.3.4" bus2="3824469938426310.1.2.3.4" linecode="6796775_4" length=0.03000 units=km
New "Line.RBT_UC2958406" phases=4 bus1="3826707438424992.1.2.3.4" bus2="3826713338425153.1.2.3.4" linecode="6796775_4" length=0.03000 units=km
New "Line.RBT_UC3010779" phases=4 bus1="3826437938426857.1.2.3.4" bus2="3826690038426816.1.2.3.4" linecode="6796775_4" length=0.03000 units=km
New "Line.RBT_UC3017769" phases=2 bus1="3830404038426787.1.4" bus2="3830293338426739.1.4" linecode="6771582_2" length=0.01730 units=km
New "Line.RBT_UC3182018" phases=4 bus1="3833025038461328.1.2.3.4" bus2="3833082938461467.1.2.3.4" linecode="6796775_4" length=0.02040 units=km
New "Line.RBT_UC3210160" phases=2 bus1="3832770038461079.1.4" bus2="3832734938461125.1.4" linecode="6771582_2" length=0.01630 units=km
New "Line.RBT_UC3222501" phases=4 bus1="3824735638426910.1.2.3.4" bus2="3824777038427041.1.2.3.4" linecode="6796775_4" length=0.02140 units=km
New "Line.RBT_UC3248659" phases=4 bus1="3828836738427065.1.2.3.4" bus2="3828767438427201.1.2.3.4" linecode="6796775_4" length=0.03000 units=km
New "Line.RBT_UC3310914" phases=2 bus1="3821490438425236.1.4" bus2="3821700738425143.1.4" linecode="6771582_2" length=0.03000 units=km
New "Line.RBT_UC3331230" phases=4 bus1="3824325738423817.1.2.3.4" bus2="3824324538423810.1.2.3.4" linecode="6796775_4" length=0.01840 units=km
New "Line.RBT_UC3336631" phases=4 bus1="3822134338426051.1.2.3.4" bus2="3822162638426043.1.2.3.4" linecode="6796775_4" length=0.00600 units=km
New "Line.RBT_UC3372724" phases=4 bus1="3823962438422345.1.2.3.4" bus2="3823852038422314.1.2.3.4" linecode="6796775_4" length=0.02350 units=km
New "Line.RBT_UC3383811" phases=4 bus1="3823182438427116.1.2.3.4" bus2="3823188038427102.1.2.3.4" linecode="6796775_4" length=0.00600 units=km
New "Line.RBT_UC3410402" phases=4 bus1="3821950638424415.1.2.3.4" bus2="3822110938424284.1.2.3.4" linecode="6771584_4" length=0.00600 units=km
New "Line.RBT_UC3485263" phases=2 bus1="3806563638461095.1.4" bus2="3806610938461053.1.4" linecode="6796774_2" length=0.03000 units=km
New "Line.RBT_UC3499968" phases=4 bus1="3829534938427017.1.2.3.4" bus2="3829693938427172.1.2.3.4" linecode="6796775_4" length=0.03000 units=km
New "Line.RBT_UC3530347" phases=4 bus1="3820382138423291.1.2.3.4" bus2="3820590938423327.1.2.3.4" linecode="6796775_4" length=0.03000 units=km
New "Line.RBT_UC3561033" phases=2 bus1="3813278138448396.1.4" bus2="3813252038448289.1.4" linecode="6771582_2" length=0.02240 units=km
New "Line.RBT_UC3596895" phases=4 bus1="3832602138424043.1.2.3.4" bus2="3832497038423841.1.2.3.4" linecode="6796775_4" length=0.01730 units=km
New "Line.RBT_UC3596946" phases=4 bus1="3822299338424812.1.2.3.4" bus2="3822276938424833.1.2.3.4" linecode="6771584_4" length=0.01330 units=km
New "Line.RBT_UC3597585" phases=4 bus1="3827411038425661.1.2.3.4" bus2="3827422538425677.1.2.3.4" linecode="6796775_4" length=0.03000 units=km
New "Line.RBT_UC3618055" phases=2 bus1="3832494338460847.1.4" bus2="3832637938460748.1.4" linecode="6771582_2" length=0.02350 units=km
New "Line.RBT_UC3622087" phases=4 bus1="3830143938424800.1.2.3.4" bus2="3830137038424782.1.2.3.4" linecode="6796775_4" length=0.00920 units=km
New "Line.RBT_UC3631305" phases=2 bus1="3832197138426855.1.4" bus2="3832349938427028.1.4" linecode="6796774_2" length=0.01940 units=km
New "Line.RBT_UC3631317" phases=2 bus1="3832532438426838.3.4" bus2="3832413038427061.3.4" linecode="6771582_2" length=0.01940 units=km
New "Line.RBT_UC3642973" phases=2 bus1="3833193538461638.2.4" bus2="3833110938461625.2.4" linecode="6771582_2" length=0.01840 units=km
New "Line.RBT_UC3657059" phases=4 bus1="3807671238461207.1.2.3.4" bus2="3807694038461019.1.2.3.4" linecode="4544169_3_4" length=0.03000 units=km
New "Line.RBT_UC3668831" phases=2 bus1="3824325738423817.2.4" bus2="3824351938423956.2.4" linecode="6796774_2" length=0.00600 units=km
New "Line.RBT_UC3672350" phases=2 bus1="3806563638461095.1.4" bus2="3806637938461059.1.4" linecode="6771582_2" length=0.01330 units=km
New "Line.RBT_UC3687938" phases=4 bus1="3821610638423954.1.2.3.4" bus2="3821647038423919.1.2.3.4" linecode="6796775_4" length=0.00600 units=km
New "Line.RBT_UC3695578" phases=4 bus1="3830793338424723.1.2.3.4" bus2="3830611038424703.1.2.3.4" linecode="6771584_4" length=0.03000 units=km
New "Line.RBT_UC3702839" phases=2 bus1="3827433038424839.2.4" bus2="3827300338424860.2.4" linecode="6771582_2" length=0.01220 units=km
New "Line.RBT_UC3703307" phases=4 bus1="3830143938424800.1.2.3.4" bus2="3830193938424774.1.2.3.4" linecode="6771584_4" length=0.03000 units=km
New "Line.RBT_UC3720449" phases=3 bus1="3830143938424800.1.2.4" bus2="3830143938424778.1.2.4" linecode="4544169_2_3" length=0.01530 units=km
New "Line.RBT_UC3731992" phases=4 bus1="3822679638426063.1.2.3.4" bus2="3822838038425998.1.2.3.4" linecode="6796775_4" length=0.03000 units=km
New "Line.RBT_UC3753091" phases=4 bus1="3824088038427419.1.2.3.4" bus2="3824061038427462.1.2.3.4" linecode="6796775_4" length=0.03000 units=km
New "Line.RBT_UC3759018" phases=4 bus1="3830186238425966.1.2.3.4" bus2="3830174938425970.1.2.3.4" linecode="6796775_4" length=0.02140 units=km
New "Line.RBT_UC3759227" phases=4 bus1="3827411038425661.1.2.3.4" bus2="3827424938425583.1.2.3.4" linecode="6771584_4" length=0.00710 units=km
New "Line.RBT_UC3771046" phases=4 bus1="3822163838427451.1.2.3.4" bus2="3822101938427549.1.2.3.4" linecode="6796775_4" length=0.02040 units=km
New "Line.RBT_UC3776213" phases=2 bus1="3813265438448771.2.4" bus2="3813187938448737.2.4" linecode="6771583_2" length=0.03000 units=km
New "Line.RBT_UC3781429" phases=4 bus1="3821336538424373.1.2.3.4" bus2="3821191038424653.1.2.3.4" linecode="6771584_4" length=0.03000 units=km
New "Line.RBT_UC3805892" phases=4 bus1="3822679638426063.1.2.3.4" bus2="3823019038426099.1.2.3.4" linecode="6771584_4" length=0.03000 units=km
New "Line.RBT_UC3806420" phases=4 bus1="3825018738423761.1.2.3.4" bus2="3825060938423739.1.2.3.4" linecode="6796775_4" length=0.02040 units=km
New "Line.RBT_UC3811595" phases=4 bus1="3820428438425931.1.2.3.4" bus2="3820693938425950.1.2.3.4" linecode="6771584_4" length=0.03000 units=km
New "Line.RBT_UC3841258" phases=4 bus1="3821520238422707.1.2.3.4" bus2="3821487838422786.1.2.3.4" linecode="6796775_4" length=0.03000 units=km
New "Line.RBT_UC3848498" phases=4 bus1="3824725138424343.1.2.3.4" bus2="3824674938424299.1.2.3.4" linecode="6796775_4" length=0.03000 units=km
New "Line.RBT_UC3859670" phases=4 bus1="3825508438426534.1.2.3.4" bus2="3825571838426544.1.2.3.4" linecode="6796775_4" length=0.03000 units=km
New "Line.RBT_UC3879091" phases=4 bus1="3823370738424049.1.2.3.4" bus2="3822798838424133.1.2.3.4" linecode="6796775_4" length=0.03000 units=km
New "Line.RBT_UC3882806" phases=4 bus1="3825742838427328.1.2.3.4" bus2="3825812838427724.1.2.3.4" linecode="6771584_4" length=0.02040 units=km
New "Line.RBT_UC3893472" phases=4 bus1="3828053938427103.1.2.3.4" bus2="3828057838427177.1.2.3.4" linecode="6796775_4" length=0.03000 units=km
New "Line.RBT_UC3893567" phases=2 bus1="3833185038461789.1.4" bus2="3833096838461828.1.4" linecode="6796774_2" length=0.01020 units=km
New "Line.RBT_UC3903732" phases=4 bus1="3831696838427002.1.2.3.4" bus2="3831689938426985.1.2.3.4" linecode="6771584_4" length=0.02040 units=km
New "Line.RBT_UC3906264" phases=4 bus1="3825742838427328.1.2.3.4" bus2="3825665838427244.1.2.3.4" linecode="6796775_4" length=0.03000 units=km
New "Line.RBT_UC3916291" phases=4 bus1="3821526038426130.1.2.3.4" bus2="3821646838425961.1.2.3.4" linecode="6771584_4" length=0.03000 units=km
New "Line.RBT_UC3939164" phases=2 bus1="3806086338461332.2.4" bus2="3806207638461459.2.4" linecode="6796774_2" length=0.02960 units=km
New "Line.RBT_UC3946997" phases=4 bus1="3820999038423122.1.2.3.4" bus2="3821201838423205.1.2.3.4" linecode="6771584_4" length=0.00610 units=km
New "Line.RBT_UC3962185" phases=4 bus1="3820934038426705.1.2.3.4" bus2="3820847938426838.1.2.3.4" linecode="6796775_4" length=0.01220 units=km
New "Line.RBT_UC4062990" phases=4 bus1="3827854038426720.1.2.3.4" bus2="3827751838426402.1.2.3.4" linecode="6796775_4" length=0.01330 units=km
New "Line.RBT_UC4067205" phases=4 bus1="3824544538425009.1.2.3.4" bus2="3824601838424986.1.2.3.4" linecode="6771584_4" length=0.01730 units=km
New "Line.RBT_UC4116755" phases=2 bus1="3833185038461789.1.4" bus2="3833098838461770.1.4" linecode="6796774_2" length=0.03000 units=km
New "Line.RBT_UC4124791" phases=2 bus1="3822502138425018.3.4" bus2="3822178838424907.3.4" linecode="6771582_2" length=0.03000 units=km
New "Line.RBT_UC4155726" phases=4 bus1="3827698838427161.1.2.3.4" bus2="3827709138427122.1.2.3.4" linecode="6796775_4" length=0.01630 units=km
New "Line.RBT_UC4155743" phases=4 bus1="3827854038426720.1.2.3.4" bus2="3828007838426711.1.2.3.4" linecode="6796775_4" length=0.00600 units=km
New "Line.RBT_UC4200142" phases=4 bus1="3830143938424800.1.2.3.4" bus2="3830209838424588.1.2.3.4" linecode="6796775_4" length=0.02040 units=km
New "Line.RBT_UC4221703" phases=2 bus1="3807534038461236.2.4" bus2="3807403638461366.2.4" linecode="6771582_2" length=0.00820 units=km
New "Line.RBT_UC4255360" phases=4 bus1="3823962438422345.1.2.3.4" bus2="3823671838422544.1.2.3.4" linecode="6796775_4" length=0.02140 units=km
New "Line.RBT_UC4264903" phases=4 bus1="3821526038426130.1.2.3.4" bus2="3821498838425961.1.2.3.4" linecode="6796775_4" length=0.01730 units=km
New "Line.RBT_UC4269076" phases=4 bus1="3832982738425546.1.2.3.4" bus2="3832840838425594.1.2.3.4" linecode="6771584_4" length=0.03000 units=km
New "Line.RBT_UC4277872" phases=4 bus1="3831493538426274.1.2.3.4" bus2="3831812838426283.1.2.3.4" linecode="6796775_4" length=0.03000 units=km
New "Line.RBT_UC4282098" phases=4 bus1="3828053938427103.1.2.3.4" bus2="3828083038427040.1.2.3.4" linecode="6796775_4" length=0.02040 units=km
New "Line.RBT_UC4323186" phases=4 bus1="3833381338461950.1.2.3.4" bus2="3833174938461815.1.2.3.4" linecode="6771584_4" length=0.00600 units=km
New "Line.RBT_UC4337556" phases=4 bus1="3824086238422613.1.2.3.4" bus2="3824109838422544.1.2.3.4" linecode="4544169_3_4" length=0.03000 units=km
New "Line.RBT_UC4402932" phases=4 bus1="3830177338425182.1.2.3.4" bus2="3830146838425172.1.2.3.4" linecode="6796775_4" length=0.02860 units=km
New "Line.RBT_UC4440389" phases=4 bus1="3823366438425564.1.2.3.4" bus2="3823248838425661.1.2.3.4" linecode="6796775_4" length=0.02040 units=km
New "Line.RBT_UC4441838" phases=4 bus1="3826142538424639.1.2.3.4" bus2="3826212838424516.1.2.3.4" linecode="6771584_4" length=0.03000 units=km
New "Line.RBT_UC4470104" phases=4 bus1="3821910738426361.1.2.3.4" bus2="3821896838426363.1.2.3.4" linecode="6796775_4" length=0.00600 units=km
New "Line.RBT_UC4472358" phases=4 bus1="3824823438422353.1.2.3.4" bus2="3824465838422322.1.2.3.4" linecode="6796775_4" length=0.01120 units=km
New "Line.RBT_UC4472679" phases=4 bus1="3823816238427428.1.2.3.4" bus2="3823593838427511.1.2.3.4" linecode="6771584_4" length=0.02860 units=km
New "Line.RBT_UC4534870" phases=4 bus1="3825508438426534.1.2.3.4" bus2="3825521838426594.1.2.3.4" linecode="6796775_4" length=0.02040 units=km
New "Line.RBT_UC4591891" phases=4 bus1="3821520238422707.1.2.3.4" bus2="3821459838422455.1.2.3.4" linecode="6771584_4" length=0.03000 units=km
New "Line.RBT_UC4602166" phases=4 bus1="3829462738426970.1.2.3.4" bus2="3829465838426855.1.2.3.4" linecode="6771584_4" length=0.03000 units=km
New "Line.RBT_UC4611679" phases=2 bus1="3820353238425874.1.4" bus2="3820428438425931.1.4" linecode="6771583_2" length=0.02550 units=km
New "Line.RBT_UC4637507" phases=2 bus1="3820451638424135.1.4" bus2="3820576338424013.1.4" linecode="6771582_2" length=0.02040 units=km
New "Line.RBT_UC4648908" phases=4 bus1="3822080038424143.1.2.3.4" bus2="3821950638424415.1.2.3.4" linecode="6796775_4" length=0.03000 units=km
New "Line.RBT_UC4667082" phases=4 bus1="3823370738424049.1.2.3.4" bus2="3823351838424044.1.2.3.4" linecode="6796775_4" length=0.02650 units=km
New "Line.RBT_UC4710978" phases=2 bus1="3832770038461079.1.4" bus2="3832823838461212.1.4" linecode="6771582_2" length=0.03000 units=km
New "Line.RBT_UC4730446" phases=2 bus1="3822502138425018.3.4" bus2="3822779838425216.3.4" linecode="6771583_2" length=0.02040 units=km
New "Line.RBT_UC4779525" phases=4 bus1="3821520238422707.1.2.3.4" bus2="3821504838422411.1.2.3.4" linecode="6771584_4" length=0.00600 units=km
New "Line.RBT_UC4800150" phases=2 bus1="3832770038461079.1.4" bus2="3832818838461150.1.4" linecode="6796774_2" length=0.00600 units=km
New "Line.RBT_UC4806951" phases=2 bus1="3806086338461332.2.4" bus2="3806021638461687.2.4" linecode="6771582_2" length=0.02960 units=km
New "Line.RBT_UC4845803" phases=4 bus1="3828053938427103.1.2.3.4" bus2="3827887838427211.1.2.3.4" linecode="6796775_4" length=0.03000 units=km
New "Line.RBT_UC4854235" phases=4 bus1="3821520238422707.1.2.3.4" bus2="3821504838422474.1.2.3.4" linecode="6796775_4" length=0.00600 units=km
New "Line.RBT_UC4904444" phases=4 bus1="3821520238422707.1.2.3.4" bus2="3821490838422455.1.2.3.4" linecode="6796775_4" length=0.00600 units=km
New "Line.RBT_UC4913013" phases=4 bus1="3823916038425743.1.2.3.4" bus2="3823932838425963.1.2.3.4" linecode="6796775_4" length=0.03000 units=km
New "Line.RBT_UC4976407" phases=4 bus1="3832770038461079.1.2.3.4" bus2="3832934838460775.1.2.3.4" linecode="6771584_4" length=0.02550 units=km
New "Line.RBT_UC4985953" phases=4 bus1="3821754038426304.1.2.3.4" bus2="3821712838426172.1.2.3.4" linecode="6771584_4" length=0.01530 units=km
New "Line.RBT_UC5004820" phases=2 bus1="3832770038461079.1.4" bus2="3832957838460756.1.4" linecode="6771582_2" length=0.00600 units=km
New "Line.RBT_UC5008543" phases=4 bus1="3824735638426910.1.2.3.4" bus2="3824796838426944.1.2.3.4" linecode="6771584_4" length=0.00600 units=km
New "Line.RBT_UC5049861" phases=4 bus1="3820999038423122.1.2.3.4" bus2="3820923838423286.1.2.3.4" linecode="6796775_4" length=0.02040 units=km
New "Line.RBT_UC5152999" phases=4 bus1="3820576338424013.1.2.3.4" bus2="3820484838423655.1.2.3.4" linecode="6796775_4" length=0.01220 units=km
New "Line.RBT_UC5174294" phases=4 bus1="3829262238424745.1.2.3.4" bus2="3829263838425525.1.2.3.4" linecode="6796775_4" length=0.03000 units=km
New "Line.RBT_UC5249607" phases=2 bus1="3827185438424424.1.4" bus2="3827465838424599.1.4" linecode="6796774_2" length=0.03000 units=km
New "Line.RBT_UC5272338" phases=4 bus1="3820382138423291.1.2.3.4" bus2="3820686238423325.1.2.3.4" linecode="6796775_4" length=0.03000 units=km
New "Line.RBT_UC5310914" phases=2 bus1="3825547038423369.1.4" bus2="3825718838423177.1.4" linecode="6771582_2" length=0.03000 units=km
New "Line.RBT_UC5317044" phases=4 bus1="3827854038426720.1.2.3.4" bus2="3827865838426822.1.2.3.4" linecode="6796775_4" length=0.00920 units=km
New "Line.RBT_UC5338637" phases=4 bus1="3821490438425236.1.2.3.4" bus2="3821668838424941.1.2.3.4" linecode="6796775_4" length=0.02860 units=km
New "Line.RBT_UC5423691" phases=4 bus1="3824801938426364.1.2.3.4" bus2="3824994738426591.1.2.3.4" linecode="6796775_4" length=0.02240 units=km
New "Line.RBT_UC5439369" phases=4 bus1="3824801938426364.1.2.3.4" bus2="3824676838426099.1.2.3.4" linecode="6796775_4" length=0.01020 units=km
New "Line.RBT_UC5505364" phases=4 bus1="3830186238425966.1.2.3.4" bus2="3829390838426113.1.2.3.4" linecode="6796775_4" length=0.02040 units=km
New "Line.RBT_UC5511999" phases=2 bus1="3823962438422345.1.4" bus2="3823759838422480.1.4" linecode="6796774_2" length=0.03000 units=km
New "Line.RBT_UC5561331" phases=4 bus1="3824985238426141.1.2.3.4" bus2="3825452138426101.1.2.3.4" linecode="6771584_4" length=0.01730 units=km
New "Line.RBT_UC5638425" phases=2 bus1="3830277638426362.1.4" bus2="3830359438426307.1.4" linecode="6771582_2" length=0.01020 units=km
New "Line.RBT_UC5766357" phases=4 bus1="3826452238424053.1.2.3.4" bus2="3826431238424014.1.2.3.4" linecode="6796775_4" length=0.01430 units=km
New "Line.RBT_UC5772633" phases=2 bus1="3807122738460700.1.4" bus2="3807588238460782.1.4" linecode="6771582_2" length=0.02140 units=km
New "Line.RBT_UC5772634" phases=2 bus1="3807113738460709.1.4" bus2="3807588238460782.1.4" linecode="6771582_2" length=0.03000 units=km
New "Line.RBT_UC5885161" phases=2 bus1="3807864738460997.1.4" bus2="3807671238461207.1.4" linecode="6771582_2" length=0.03000 units=km
New "Line.RBT_UC5912487" phases=2 bus1="3822516038426917.1.4" bus2="3822469038426769.1.4" linecode="6771582_2" length=0.03000 units=km
New "Line.RBT_UC5938772" phases=2 bus1="3826667738425842.1.4" bus2="3826299838426413.1.4" linecode="6771582_2" length=0.03000 units=km
New "Line.RBT_UC6206960" phases=4 bus1="3832197138426855.1.2.3.4" bus2="3832340638427000.1.2.3.4" linecode="6796775_4" length=0.03000 units=km
New "Line.RBT_UC6218157" phases=4 bus1="3827789538425896.1.2.3.4" bus2="3827779338425392.1.2.3.4" linecode="6771584_4" length=0.02450 units=km
New "Line.RBT_UC6337975" phases=4 bus1="3832195338426244.1.2.3.4" bus2="3832392238426223.1.2.3.4" linecode="6796775_4" length=0.00610 units=km
New "Line.RBT_UC6351852" phases=4 bus1="3821700938425503.1.2.3.4" bus2="3821490438425236.1.2.3.4" linecode="4544169_3_4" length=0.03000 units=km
New "Line.RBT_UC6371110" phases=4 bus1="3824666638423205.1.2.3.4" bus2="3824813038423383.1.2.3.4" linecode="6796775_4" length=0.00710 units=km
New "Line.RBT_UC6375542" phases=4 bus1="3831761938424838.1.2.3.4" bus2="3831742038424794.1.2.3.4" linecode="6796775_4" length=0.00600 units=km
New "Line.RBT_UC6479395" phases=4 bus1="3821536638423288.1.2.3.4" bus2="3821611138423000.1.2.3.4" linecode="6771584_4" length=0.00600 units=km
New "Line.RBT_UC6740698" phases=2 bus1="3821753338422657.1.4" bus2="3821520238422707.1.4" linecode="6771582_2" length=0.03000 units=km
New "Line.RBT_UC6810622" phases=4 bus1="35318175TR.1.2.3.4" bus2="206332194.1.2.3.4" linecode="6796775_4" length=0.00600 units=km
New "Line.RBT_UC6838415" phases=4 bus1="3830475838425236.1.2.3.4" bus2="3830177338425182.1.2.3.4" linecode="6796775_4" length=0.03000 units=km
New "Line.RBT_UC6960227" phases=2 bus1="3806804638461315.2.4" bus2="3806761338461403.2.4" linecode="6771582_2" length=0.00600 units=km
New "Line.RBT_UC7001143" phases=4 bus1="3807534038461236.1.2.3.4" bus2="3807394538461366.1.2.3.4" linecode="6771584_4" length=0.01840 units=km